442530
  RxDock  10142007463D
librxdock.so/0.1.0
 31 33  0  0  0  0  0  0  0  0999 V2000
    5.0751   -2.5593    2.4961 Cl  0  0  0  0  0  0
    4.6561    0.0105   -2.1756 O   0  0  0  0  0  0
    7.2309    2.3795    0.1286 O   0  0  0  0  0  0
    5.5555    2.0564   -1.8124 O   0  0  0  0  0  0
    8.9015    2.3071    2.1173 O   0  0  0  0  0  0
    8.2255    4.4777    4.1699 O   0  0  0  0  0  0
   10.3911    3.8348    4.0847 O   0  0  0  0  0  0
    7.9388    1.5269    4.0772 N   0  0  0  0  0  0
    4.3030   -1.5425   -0.3415 C   0  0  0  0  0  0
    4.6508   -1.3897   -1.8151 C   0  0  0  0  0  0
    5.2932   -0.7396    0.4464 C   0  0  0  0  0  0
    5.7994    0.4483   -0.0956 C   0  0  0  0  0  0
    6.7066    1.2246    0.6329 C   0  0  0  0  0  0
    7.1066    0.8132    1.9045 C   0  0  0  0  0  0
    5.6883   -1.1353    1.7289 C   0  0  0  0  0  0
    5.3439    0.9141   -1.4270 C   0  0  0  0  0  0
    8.7875    2.2640    4.9857 C   0  0  0  0  0  0
    3.6302   -2.0893   -2.7015 C   0  0  0  0  0  0
    6.5968   -0.3629    2.4527 C   0  0  0  0  0  0
   10.0174    1.4388    5.3860 C   0  0  0  0  0  0
    8.0538    1.5985    2.6853 C   0  0  0  0  0  0
    9.9968    0.0388    4.8209 C   0  0  0  0  0  0
    9.2255    3.5875    4.3760 C   0  0  0  0  0  0
   11.0225   -0.3708    3.9839 C   0  0  0  0  0  0
    8.9527   -0.8111    5.1500 C   0  0  0  0  0  0
   11.0037   -1.6642    3.4619 C   0  0  0  0  0  0
    8.9342   -2.1047    4.6281 C   0  0  0  0  0  0
    9.9597   -2.5311    3.7840 C   0  0  0  0  0  0
    7.2138    0.9580    4.5013 H   0  0  0  0  0  0
    7.0869    2.4297   -0.8289 H   0  0  0  0  0  0
    7.8290    4.3838    3.2776 H   0  0  0  0  0  0
  1 15  1  0  0  0
  2 10  1  0  0  0
  2 16  1  0  0  0
  3 13  1  0  0  0
  3 30  1  0  0  0
  4 16  2  0  0  0
  5 21  2  0  0  0
  6 23  1  0  0  0
  6 31  1  0  0  0
  7 23  2  0  0  0
  8 17  1  0  0  0
  8 21  1  0  0  0
  8 29  1  0  0  0
  9 10  1  0  0  0
  9 11  1  0  0  0
 10 18  1  0  0  0
 11 12  1  0  0  0
 11 15  2  0  0  0
 12 13  2  0  0  0
 12 16  1  0  0  0
 13 14  1  0  0  0
 14 19  2  0  0  0
 14 21  1  0  0  0
 15 19  1  0  0  0
 17 20  1  0  0  0
 17 23  1  0  0  0
 20 22  1  0  0  0
 22 24  2  0  0  0
 22 25  1  0  0  0
 24 26  1  0  0  0
 25 27  2  0  0  0
 26 28  2  0  0  0
 27 28  1  0  0  0
M  END
>  <CHROM.1>
-15.50542409,89.12972336,-91.66270153,-28.36445033,-4.04137382,65.90903072
120.18892006,7.32410140,0.33926359,2.01746199,-3.10256982,-0.87201071,-0.31983309

>  <Name>
442530

>  <PUBCHEM_ATOM_DEF_STEREO_COUNT>
2

>  <PUBCHEM_ATOM_UDEF_STEREO_COUNT>
0

>  <PUBCHEM_BOND_DEF_STEREO_COUNT>
0

>  <PUBCHEM_BOND_UDEF_STEREO_COUNT>
0

>  <PUBCHEM_CACTVS_TAUTO_COUNT>
22

>  <PUBCHEM_COMPONENT_COUNT>
1

>  <PUBCHEM_COMPOUND_CID>
442530

>  <PUBCHEM_CONFORMER_DIVERSEORDER>
1
20
71
82
29
2
63
53
55
50
66
78
19
46
33
52
44
14
77
85
69
67
10
60
65
39
12
35
11
62
75
7
15
25
79
83
28
38
74
37
64
24
54
13
73
61
4
21
27
30
36
80
59
9
84
49
6
81
72
76
68
58
22
5
56
57
3
32
41
34
43
70
8
26
51
45
17
47
42
48
16
23
40
31
18

>  <PUBCHEM_CONFORMER_ID>
0006C0A200000001

>  <PUBCHEM_CONFORMER_RMSD>
0.8

>  <PUBCHEM_COORDINATE_TYPE>
2
5
10

>  <PUBCHEM_EFFECTIVE_ROTOR_COUNT>
6.6

>  <PUBCHEM_FEATURE_SELFOVERLAP>
50.835

>  <PUBCHEM_HEAVY_ATOM_COUNT>
28

>  <PUBCHEM_ISOTOPIC_ATOM_COUNT>
0

>  <PUBCHEM_MMFF94_ENERGY>
81.1182

>  <PUBCHEM_MMFF94_PARTIAL_CHARGES>
36
1 -0.18
10 0.28
11 -0.14
12 0.09
13 0.08
14 0.09
15 0.18
16 0.63
17 0.36
19 -0.15
2 -0.43
20 0.14
21 0.54
22 -0.14
23 0.66
24 -0.15
25 -0.15
26 -0.15
27 -0.15
28 -0.15
3 -0.53
36 0.15
39 0.37
4 -0.57
40 0.45
41 0.15
42 0.15
43 0.15
44 0.15
45 0.15
46 0.5
5 -0.57
6 -0.65
7 -0.57
8 -0.73
9 0.14

>  <PUBCHEM_PHARMACOPHORE_FEATURES>
10
1 3 donor
1 4 acceptor
1 5 acceptor
1 6 acceptor
1 7 acceptor
1 8 donor
3 6 7 23 anion
6 11 12 13 14 15 19 rings
6 2 9 10 11 12 16 rings
6 22 24 25 26 27 28 rings

>  <PUBCHEM_SHAPE_FINGERPRINT>
11828532 37 17749398095981307467
11991303 11 17981051031636813444
12596602 18 15410600510926603111
12730499 353 18341055215371151632
13533116 47 18059856164597339433
13583140 156 18410573955424628630
1361 2 18269550696898232493
13617811 41 17458347416954086167
13911987 19 18056487390088755072
14251757 17 18336263418789752994
14659021 117 16683734585779984630
14848160 33 18129101126319056630
14910302 57 18114460085112041719
15183329 4 17845941736881616601
15324884 4 17758987074463011584
15664445 248 17822300127275080644
15961568 22 17677052485557949972
17818456 19 16771004098669137352
1813 80 15697708229834701987
20645477 70 18272936020575964196
21033650 10 16806172029654931692
21133410 32 16739516401492475698
21285901 2 18260831505423773501
22393880 68 17823970143972594933
22440779 20 17031125537350160744
23557571 272 17894353297591294605
23559900 14 18259993673331608006
23569914 152 17328830251434138391
24771750 20 17319591467453918541
44802255 64 16887565822950369276
46194498 28 18410290289972145396
469060 322 17907842252095834758
59682541 52 18201427053091997943
59755656 215 18408887364875508332
613672 6 17838044906684666982
621550 34 18338513157304466468
6669772 16 18335692871250610578
7399639 24 18338512070809589796
8988823 20 18272091582412914015
9709674 26 18408884018599690260

>  <PUBCHEM_SHAPE_MULTIPOLES>
537.9
12.35
3.95
1.54
10.14
0.29
0.19
-2.46
1.4
-5.8
0.56
0.13
-0.07
3.22

>  <PUBCHEM_SHAPE_SELFOVERLAP>
1157.203

>  <PUBCHEM_SHAPE_VOLUME>
294.5

>  <RI>
0

>  <Rbt.Current_Directory>
/home/fc/tossine/1122/p3/0_clust01

>  <Rbt.Executable>
rbdock/0.1.0

>  <Rbt.Library>
librxdock.so/0.1.0

>  <Rbt.Parameter_File>
/cluster/rxdock/data/scripts/dock.prm

>  <Rbt.Receptor>
rx_3.prm

>  <SCORE>
14.8954

>  <SCORE.INTER>
-1.56913

>  <SCORE.INTER.CONST>
1

>  <SCORE.INTER.POLAR>
-0.774597

>  <SCORE.INTER.REPUL>
0.27089

>  <SCORE.INTER.ROT>
5

>  <SCORE.INTER.VDW>
-10.6899

>  <SCORE.INTER.norm>
-0.0560402

>  <SCORE.INTRA>
14.4121

>  <SCORE.INTRA.DIHEDRAL>
26.8942

>  <SCORE.INTRA.DIHEDRAL.0>
7.69146

>  <SCORE.INTRA.POLAR>
0

>  <SCORE.INTRA.POLAR.0>
0

>  <SCORE.INTRA.REPUL>
0

>  <SCORE.INTRA.REPUL.0>
0

>  <SCORE.INTRA.VDW>
0.965021

>  <SCORE.INTRA.VDW.0>
-1.94297

>  <SCORE.INTRA.norm>
0.514719

>  <SCORE.RESTR>
2.05244

>  <SCORE.RESTR.CAVITY>
2.05244

>  <SCORE.RESTR.norm>
0.0733013

>  <SCORE.SYSTEM>
0

>  <SCORE.SYSTEM.CONST>
0

>  <SCORE.SYSTEM.DIHEDRAL>
0

>  <SCORE.SYSTEM.norm>
0

>  <SCORE.heavy>
28

>  <SCORE.norm>
0.53198

$$$$
