FB1.pdb
  RxDock  10092023033D
librxdock.so/0.1.0
 59 58  0  0  0  0  0  0  0  0999 V2000
    2.3563   -5.3197   10.6253 C   0  0  0  0  0  0
    3.1124   -5.6670    9.3451 C   0  0  0  0  0  0
    2.4015   -6.7714    8.5457 C   0  0  0  0  0  0
    1.0568   -6.3166    7.9254 C   0  0  0  0  0  0
    1.0611   -4.8667    7.3270 C   0  0  0  0  0  0
    2.0399   -4.8382    6.1304 C   0  0  0  0  0  0
   -0.3778   -4.3555    6.8954 C   0  0  0  0  0  0
   -1.1925   -5.2687    5.8617 C   0  0  0  0  0  0
   -2.7691   -5.2368    5.6582 C   0  0  0  0  0  0
   -3.6556   -5.3324    7.0461 C   0  0  0  0  0  0
   -4.2610   -3.9588    7.3306 C   0  0  0  0  0  0
   -4.8044   -6.4390    7.0719 C   0  0  0  0  0  0
   -4.5302   -8.0331    7.0249 C   0  0  0  0  0  0
   -5.6910   -9.0834    6.9512 C   0  0  0  0  0  0
   -5.3126  -10.6342    6.9862 C   0  0  0  0  0  0
   -6.3661  -11.8080    6.9040 C   0  0  0  0  0  0
   -7.0009  -12.1712    5.5356 C   0  0  0  0  0  0
   -7.8697  -13.4873    5.4879 C   0  0  0  0  0  0
   -8.6481  -13.7409    4.1909 C   0  0  0  0  0  0
   -7.8432  -13.9559    2.8778 C   0  0  0  0  0  0
   -7.4719  -15.3921    2.4034 C   0  0  0  0  0  0
   -6.4756  -15.4904    1.2567 C   0  0  0  0  0  0
   -7.0492  -16.2289    3.5424 N   0  0  0  0  0  0
   -8.6962  -13.4239    1.8324 O   0  0  0  0  0  0
   -6.9992  -14.5998    5.7207 O   0  0  0  0  0  0
   -3.7600   -8.2405    5.8289 O   0  0  0  0  0  0
   -0.6536   -4.9717    4.5449 O   0  0  0  0  0  0
   -0.6218   -3.6660    4.1716 C   0  0  0  0  0  0
   -1.0484   -2.7241    4.8120 O   0  0  0  0  0  0
    0.1245   -3.5612    2.8703 C   0  0  0  0  0  0
    0.2797   -2.1080    2.3942 C   0  0  0  0  0  0
    1.4434   -1.3839    3.0833 C   0  0  0  0  0  0
    1.7072   -0.0418    2.4411 C   0  0  0  0  0  0
    2.8128    0.3180    2.0512 O   0  0  0  0  0  0
    0.6115    0.7243    2.3346 O   0  0  0  0  0  0
    0.5303   -2.1840    0.8818 C   0  0  0  0  0  0
    1.6477   -2.2588    0.3938 O   0  0  0  0  0  0
   -0.5789   -2.1118    0.1331 O   0  0  0  0  0  0
   -1.1949   -3.9941    8.0793 O   0  0  0  0  0  0
   -1.1800   -2.6792    8.5139 C   0  0  0  0  0  0
   -0.4662   -1.8002    8.0490 O   0  0  0  0  0  0
   -2.1698   -2.4319    9.6600 C   0  0  0  0  0  0
   -2.3203   -0.9476   10.1166 C   0  0  0  0  0  0
   -2.7004    0.1008    9.0550 C   0  0  0  0  0  0
   -2.4280    1.5094    9.4978 C   0  0  0  0  0  0
   -1.6107    1.8461   10.3434 O   0  0  0  0  0  0
   -3.1795    2.4076    8.8429 O   0  0  0  0  0  0
   -3.2568   -0.7404   11.3134 C   0  0  0  0  0  0
   -4.2635   -1.3989   11.4857 O   0  0  0  0  0  0
   -2.8353    0.1552   12.2307 O   0  0  0  0  0  0
   -6.4127  -15.6942    4.1318 H   0  0  0  0  0  0
   -6.4883  -17.0061    3.1863 H   0  0  0  0  0  0
   -9.4992  -13.9859    1.8593 H   0  0  0  0  0  0
   -6.6800  -14.5490    6.6405 H   0  0  0  0  0  0
   -3.3861   -9.1369    5.8637 H   0  0  0  0  0  0
    0.7459    1.5845    1.8926 H   0  0  0  0  0  0
   -0.4263   -2.2251   -0.8378 H   0  0  0  0  0  0
   -2.8802    3.2934    9.1379 H   0  0  0  0  0  0
   -3.3429    0.1643   13.0724 H   0  0  0  0  0  0
  1  2  1  0  0  0
  2  3  1  0  0  0
  3  4  1  0  0  0
  4  5  1  0  0  0
  5  6  1  0  0  0
  5  7  1  0  0  0
  7  8  1  0  0  0
  7 39  1  0  0  0
  8  9  1  0  0  0
  8 27  1  0  0  0
  9 10  1  0  0  0
 10 11  1  0  0  0
 10 12  1  0  0  0
 12 13  1  0  0  0
 13 14  1  0  0  0
 13 26  1  0  0  0
 14 15  1  0  0  0
 15 16  1  0  0  0
 16 17  1  0  0  0
 17 18  1  0  0  0
 18 19  1  0  0  0
 18 25  1  0  0  0
 19 20  1  0  0  0
 20 21  1  0  0  0
 20 24  1  0  0  0
 21 22  1  0  0  0
 21 23  1  0  0  0
 23 51  1  0  0  0
 23 52  1  0  0  0
 24 53  1  0  0  0
 25 54  1  0  0  0
 26 55  1  0  0  0
 27 28  1  0  0  0
 28 29  2  0  0  0
 28 30  1  0  0  0
 30 31  1  0  0  0
 31 32  1  0  0  0
 31 36  1  0  0  0
 32 33  1  0  0  0
 33 34  2  0  0  0
 33 35  1  0  0  0
 35 56  1  0  0  0
 36 37  2  0  0  0
 36 38  1  0  0  0
 38 57  1  0  0  0
 39 40  1  0  0  0
 40 41  2  0  0  0
 40 42  1  0  0  0
 42 43  1  0  0  0
 43 44  1  0  0  0
 43 48  1  0  0  0
 44 45  1  0  0  0
 45 46  2  0  0  0
 45 47  1  0  0  0
 47 58  1  0  0  0
 48 49  2  0  0  0
 48 50  1  0  0  0
 50 59  1  0  0  0
M  END
>  <AUTHOR>
    GENERATED BY OPEN BABEL 2.4.1

>  <CHROM.1>
68.76343123,40.21637200,64.78829318,-55.50563381,158.78958415,92.72333941
-49.54692061,-53.44744560,107.09714909,65.71592624,-175.61821197,-176.85781139
166.39718989,-179.27073827,76.63963594,170.89444698,171.97676575,63.33907102
67.31063050,93.64041151,-169.20296951,-62.54585027,-44.65488723,-3.04182914
-177.08065538,81.45345518,170.96274872,-90.58288907,-128.15605999,-177.80010113
-175.86481539,-5.33821837,-174.21094848,55.53795787,-163.16213550,-35.70435229
24.20256940,-175.16104206,-168.90787397,-2.41651758,-5.44451508,6.05158273
0.70693676,0.92498979,0.96342501

>  <COMPND>
    UNNAMED

>  <MASTER>
        0    0    0    0    0    0    0    0  109    0  109    0

>  <Name>
FB1.pdb

>  <RI>
0

>  <Rbt.Current_Directory>
/home/fc/tossine/F10/p3/2_clust03

>  <Rbt.Executable>
rbdock/0.1.0

>  <Rbt.Library>
librxdock.so/0.1.0

>  <Rbt.Parameter_File>
/cluster/rxdock/data/scripts/dock.prm

>  <Rbt.Receptor>
rx_0.prm

>  <SCORE>
3.72784

>  <SCORE.INTER>
5.75316

>  <SCORE.INTER.CONST>
1

>  <SCORE.INTER.POLAR>
-1.54151

>  <SCORE.INTER.REPUL>
0.983964

>  <SCORE.INTER.ROT>
32

>  <SCORE.INTER.VDW>
-31.3255

>  <SCORE.INTER.norm>
0.115063

>  <SCORE.INTRA>
-3.11918

>  <SCORE.INTRA.DIHEDRAL>
-10.1385

>  <SCORE.INTRA.DIHEDRAL.0>
47.3121

>  <SCORE.INTRA.POLAR>
0.998608

>  <SCORE.INTRA.POLAR.0>
-1.47808

>  <SCORE.INTRA.REPUL>
0

>  <SCORE.INTRA.REPUL.0>
0

>  <SCORE.INTRA.VDW>
-1.4452

>  <SCORE.INTRA.VDW.0>
-2.78316

>  <SCORE.INTRA.norm>
-0.0623836

>  <SCORE.RESTR>
1.09385

>  <SCORE.RESTR.CAVITY>
1.09385

>  <SCORE.RESTR.norm>
0.0218771

>  <SCORE.SYSTEM>
0

>  <SCORE.SYSTEM.CONST>
0

>  <SCORE.SYSTEM.DIHEDRAL>
0

>  <SCORE.SYSTEM.norm>
0

>  <SCORE.heavy>
50

>  <SCORE.norm>
0.0745567

$$$$
