FB1.pdb
  RxDock  10102002233D
librxdock.so/0.1.0
 59 58  0  0  0  0  0  0  0  0999 V2000
   -8.3078   -6.2967    7.0986 C   0  0  0  0  0  0
   -6.8207   -6.6356    7.0279 C   0  0  0  0  0  0
   -6.1748   -6.6580    8.4231 C   0  0  0  0  0  0
   -4.7065   -6.1643    8.4319 C   0  0  0  0  0  0
   -4.4395   -4.8675    7.5909 C   0  0  0  0  0  0
   -5.2193   -3.6999    8.2382 C   0  0  0  0  0  0
   -2.8998   -4.5114    7.4478 C   0  0  0  0  0  0
   -2.0876   -5.2561    6.2851 C   0  0  0  0  0  0
   -1.2102   -4.5326    5.1739 C   0  0  0  0  0  0
   -0.0570   -5.4778    4.4681 C   0  0  0  0  0  0
   -0.6760   -6.8360    4.1419 C   0  0  0  0  0  0
    0.6400   -4.8804    3.1635 C   0  0  0  0  0  0
    1.8279   -3.7819    3.1914 C   0  0  0  0  0  0
    3.1901   -4.0359    3.9234 C   0  0  0  0  0  0
    4.3162   -2.9071    3.8410 C   0  0  0  0  0  0
    4.9591   -2.3899    2.4942 C   0  0  0  0  0  0
    6.0550   -1.2926    2.5421 C   0  0  0  0  0  0
    5.7557    0.0385    1.7497 C   0  0  0  0  0  0
    4.5881    0.8886    2.2661 C   0  0  0  0  0  0
    3.2264    0.8017    1.5201 C   0  0  0  0  0  0
    1.9205    0.4553    2.2947 C   0  0  0  0  0  0
    0.6534    0.3229    1.4614 C   0  0  0  0  0  0
    2.1156   -0.7310    3.1497 N   0  0  0  0  0  0
    3.0089    2.1363    0.9954 O   0  0  0  0  0  0
    6.9428    0.8386    1.7659 O   0  0  0  0  0  0
    2.1757   -3.5786    1.8114 O   0  0  0  0  0  0
   -1.1576   -6.1537    6.9499 O   0  0  0  0  0  0
   -1.6636   -6.9578    7.9208 C   0  0  0  0  0  0
   -2.0205   -6.6092    9.0300 O   0  0  0  0  0  0
   -1.8071   -8.3465    7.3619 C   0  0  0  0  0  0
   -3.0733   -9.0576    7.8653 C   0  0  0  0  0  0
   -3.6360  -10.0525    6.8421 C   0  0  0  0  0  0
   -4.8970  -10.7079    7.3556 C   0  0  0  0  0  0
   -5.1118  -11.9132    7.2855 O   0  0  0  0  0  0
   -5.7650   -9.8428    7.9006 O   0  0  0  0  0  0
   -2.6608   -9.7975    9.1454 C   0  0  0  0  0  0
   -2.4497  -11.0002    9.1819 O   0  0  0  0  0  0
   -2.5985   -9.0221   10.2366 O   0  0  0  0  0  0
   -2.6904   -3.0433    7.4175 O   0  0  0  0  0  0
   -2.0114   -2.4526    8.4701 C   0  0  0  0  0  0
   -1.4718   -3.0653    9.3821 O   0  0  0  0  0  0
   -2.0039   -0.9212    8.3739 C   0  0  0  0  0  0
   -3.0572   -0.1819    9.2562 C   0  0  0  0  0  0
   -4.4889   -0.7464    9.2991 C   0  0  0  0  0  0
   -5.4734    0.1983    9.9260 C   0  0  0  0  0  0
   -5.2058    1.0701   10.7414 O   0  0  0  0  0  0
   -6.7242    0.0064    9.4800 O   0  0  0  0  0  0
   -2.6201    0.0549   10.7071 C   0  0  0  0  0  0
   -2.8706   -0.7219   11.6074 O   0  0  0  0  0  0
   -1.8399    1.1377   10.9078 O   0  0  0  0  0  0
    3.0341   -0.6794    3.5882 H   0  0  0  0  0  0
    2.1547   -1.5607    2.5533 H   0  0  0  0  0  0
    2.9975    2.7140    1.7876 H   0  0  0  0  0  0
    7.6270    0.3784    1.2458 H   0  0  0  0  0  0
    2.4173   -4.4401    1.4322 H   0  0  0  0  0  0
   -6.5686  -10.2444    8.2834 H   0  0  0  0  0  0
   -2.6812   -8.0528   10.0562 H   0  0  0  0  0  0
   -7.2846    0.6839    9.9139 H   0  0  0  0  0  0
   -1.6972    1.7044   10.1175 H   0  0  0  0  0  0
  1  2  1  0  0  0
  2  3  1  0  0  0
  3  4  1  0  0  0
  4  5  1  0  0  0
  5  6  1  0  0  0
  5  7  1  0  0  0
  7  8  1  0  0  0
  7 39  1  0  0  0
  8  9  1  0  0  0
  8 27  1  0  0  0
  9 10  1  0  0  0
 10 11  1  0  0  0
 10 12  1  0  0  0
 12 13  1  0  0  0
 13 14  1  0  0  0
 13 26  1  0  0  0
 14 15  1  0  0  0
 15 16  1  0  0  0
 16 17  1  0  0  0
 17 18  1  0  0  0
 18 19  1  0  0  0
 18 25  1  0  0  0
 19 20  1  0  0  0
 20 21  1  0  0  0
 20 24  1  0  0  0
 21 22  1  0  0  0
 21 23  1  0  0  0
 23 51  1  0  0  0
 23 52  1  0  0  0
 24 53  1  0  0  0
 25 54  1  0  0  0
 26 55  1  0  0  0
 27 28  1  0  0  0
 28 29  2  0  0  0
 28 30  1  0  0  0
 30 31  1  0  0  0
 31 32  1  0  0  0
 31 36  1  0  0  0
 32 33  1  0  0  0
 33 34  2  0  0  0
 33 35  1  0  0  0
 35 56  1  0  0  0
 36 37  2  0  0  0
 36 38  1  0  0  0
 38 57  1  0  0  0
 39 40  1  0  0  0
 40 41  2  0  0  0
 40 42  1  0  0  0
 42 43  1  0  0  0
 43 44  1  0  0  0
 43 48  1  0  0  0
 44 45  1  0  0  0
 45 46  2  0  0  0
 45 47  1  0  0  0
 47 58  1  0  0  0
 48 49  2  0  0  0
 48 50  1  0  0  0
 50 59  1  0  0  0
M  END
>  <AUTHOR>
    GENERATED BY OPEN BABEL 2.4.1

>  <CHROM.1>
-145.79642834,44.28967809,64.73135412,83.70305506,127.10594721,113.81481519
158.11933353,49.16288367,44.41054810,79.89498422,58.65150068,177.65419346
-56.62633838,-59.94921026,-179.59135226,-121.51996124,65.43319494,-100.94350123
66.54448247,125.61114075,-176.88949991,-59.57912625,40.64769364,-72.47794596
-142.33209992,149.46625857,-178.63893733,-102.39025414,-134.04872203,-176.91630358
-9.41896362,6.15147802,99.37881659,-43.57181154,-167.46804446,-92.19900117
-25.66566874,-177.85363279,5.05391472,-1.36842670,-3.91784073,6.46867388
2.67266540,-0.70872770,-2.96865843

>  <COMPND>
    UNNAMED

>  <MASTER>
        0    0    0    0    0    0    0    0  109    0  109    0

>  <Name>
FB1.pdb

>  <RI>
0

>  <Rbt.Current_Directory>
/home/fc/tossine/F10/p3/2_clust03

>  <Rbt.Executable>
rbdock/0.1.0

>  <Rbt.Library>
librxdock.so/0.1.0

>  <Rbt.Parameter_File>
/cluster/rxdock/data/scripts/dock.prm

>  <Rbt.Receptor>
rx_4.prm

>  <SCORE>
37.4984

>  <SCORE.INTER>
20.2042

>  <SCORE.INTER.CONST>
1

>  <SCORE.INTER.POLAR>
-3.27055

>  <SCORE.INTER.REPUL>
0.0455566

>  <SCORE.INTER.ROT>
32

>  <SCORE.INTER.VDW>
-6.30367

>  <SCORE.INTER.norm>
0.404085

>  <SCORE.INTRA>
16.0981

>  <SCORE.INTRA.DIHEDRAL>
32.5977

>  <SCORE.INTRA.DIHEDRAL.0>
47.3121

>  <SCORE.INTRA.POLAR>
0.132378

>  <SCORE.INTRA.POLAR.0>
-1.47808

>  <SCORE.INTRA.REPUL>
0

>  <SCORE.INTRA.REPUL.0>
0

>  <SCORE.INTRA.VDW>
-0.650812

>  <SCORE.INTRA.VDW.0>
-2.78316

>  <SCORE.INTRA.norm>
0.321963

>  <SCORE.RESTR>
1.19599

>  <SCORE.RESTR.CAVITY>
1.19599

>  <SCORE.RESTR.norm>
0.0239199

>  <SCORE.SYSTEM>
0

>  <SCORE.SYSTEM.CONST>
0

>  <SCORE.SYSTEM.DIHEDRAL>
0

>  <SCORE.SYSTEM.norm>
0

>  <SCORE.heavy>
50

>  <SCORE.norm>
0.749967

$$$$
