FB1.pdb
  RxDock  10092023093D
librxdock.so/0.1.0
 59 58  0  0  0  0  0  0  0  0999 V2000
   -0.0743   -5.6164    2.2195 C   0  0  0  0  0  0
   -0.6513   -5.2977    3.5968 C   0  0  0  0  0  0
    0.4424   -4.8602    4.5850 C   0  0  0  0  0  0
    0.3964   -5.6210    5.9336 C   0  0  0  0  0  0
   -0.2679   -7.0405    5.8700 C   0  0  0  0  0  0
    0.8002   -8.0560    5.4028 C   0  0  0  0  0  0
   -0.9218   -7.4957    7.2423 C   0  0  0  0  0  0
   -0.7254   -6.5210    8.4983 C   0  0  0  0  0  0
    0.4863   -5.5096    8.6910 C   0  0  0  0  0  0
    1.5516   -5.9135    9.8841 C   0  0  0  0  0  0
    2.3660   -7.1196    9.4193 C   0  0  0  0  0  0
    2.5377   -4.7564   10.3674 C   0  0  0  0  0  0
    3.4312   -3.8493    9.3687 C   0  0  0  0  0  0
    2.9684   -3.4971    7.9134 C   0  0  0  0  0  0
    4.0729   -3.0282    6.8601 C   0  0  0  0  0  0
    3.7632   -2.6416    5.3604 C   0  0  0  0  0  0
    2.2916   -2.4442    4.9100 C   0  0  0  0  0  0
    1.7586   -0.9597    4.8716 C   0  0  0  0  0  0
    0.6098   -0.6753    3.8960 C   0  0  0  0  0  0
    0.8908   -0.7945    2.3711 C   0  0  0  0  0  0
    1.9923    0.0775    1.6989 C   0  0  0  0  0  0
    1.8191    1.5863    1.8028 C   0  0  0  0  0  0
    3.3354   -0.3316    2.1516 N   0  0  0  0  0  0
    1.3301   -2.1641    2.1842 O   0  0  0  0  0  0
    1.3309   -0.6097    6.1923 O   0  0  0  0  0  0
    3.5627   -2.5835   10.0373 O   0  0  0  0  0  0
   -1.9086   -5.6784    8.5478 O   0  0  0  0  0  0
   -1.7091   -4.3348    8.5587 C   0  0  0  0  0  0
   -1.1009   -3.7046    9.4027 O   0  0  0  0  0  0
   -2.2810   -3.7585    7.2929 C   0  0  0  0  0  0
   -3.5791   -2.9721    7.5360 C   0  0  0  0  0  0
   -3.3338   -1.6382    8.2529 C   0  0  0  0  0  0
   -4.1558   -1.5394    9.5169 C   0  0  0  0  0  0
   -5.1977   -2.1600    9.6987 O   0  0  0  0  0  0
   -3.6352   -0.7051   10.4290 O   0  0  0  0  0  0
   -4.1853   -2.7192    6.1487 C   0  0  0  0  0  0
   -4.4081   -1.6002    5.7122 O   0  0  0  0  0  0
   -4.4980   -3.8320    5.4706 O   0  0  0  0  0  0
   -2.3419   -7.8815    7.0569 O   0  0  0  0  0  0
   -2.6253   -9.0136    6.3112 C   0  0  0  0  0  0
   -1.8131   -9.8867    6.0348 O   0  0  0  0  0  0
   -4.0906   -9.0629    5.8585 C   0  0  0  0  0  0
   -5.1434   -9.2630    6.9925 C   0  0  0  0  0  0
   -5.8814   -8.0198    7.5219 C   0  0  0  0  0  0
   -4.9496   -6.9435    7.9993 C   0  0  0  0  0  0
   -4.2763   -6.9836    9.0198 O   0  0  0  0  0  0
   -4.9040   -5.8958    7.1622 O   0  0  0  0  0  0
   -6.2062  -10.3281    6.6952 C   0  0  0  0  0  0
   -7.1488  -10.5437    7.4311 O   0  0  0  0  0  0
   -6.0892  -10.9458    5.5010 O   0  0  0  0  0  0
    3.3668   -1.3473    2.2292 H   0  0  0  0  0  0
    3.4769    0.0099    3.1049 H   0  0  0  0  0  0
    0.8269   -2.4804    1.4044 H   0  0  0  0  0  0
    1.8042   -1.1793    6.8263 H   0  0  0  0  0  0
    4.4842   -2.2888    9.9446 H   0  0  0  0  0  0
   -4.1027   -0.6805   11.2859 H   0  0  0  0  0  0
   -5.4439   -3.8866    5.1861 H   0  0  0  0  0  0
   -5.6610   -5.9942    6.5469 H   0  0  0  0  0  0
   -6.7508  -11.6515    5.3270 H   0  0  0  0  0  0
  1  2  1  0  0  0
  2  3  1  0  0  0
  3  4  1  0  0  0
  4  5  1  0  0  0
  5  6  1  0  0  0
  5  7  1  0  0  0
  7  8  1  0  0  0
  7 39  1  0  0  0
  8  9  1  0  0  0
  8 27  1  0  0  0
  9 10  1  0  0  0
 10 11  1  0  0  0
 10 12  1  0  0  0
 12 13  1  0  0  0
 13 14  1  0  0  0
 13 26  1  0  0  0
 14 15  1  0  0  0
 15 16  1  0  0  0
 16 17  1  0  0  0
 17 18  1  0  0  0
 18 19  1  0  0  0
 18 25  1  0  0  0
 19 20  1  0  0  0
 20 21  1  0  0  0
 20 24  1  0  0  0
 21 22  1  0  0  0
 21 23  1  0  0  0
 23 51  1  0  0  0
 23 52  1  0  0  0
 24 53  1  0  0  0
 25 54  1  0  0  0
 26 55  1  0  0  0
 27 28  1  0  0  0
 28 29  2  0  0  0
 28 30  1  0  0  0
 30 31  1  0  0  0
 31 32  1  0  0  0
 31 36  1  0  0  0
 32 33  1  0  0  0
 33 34  2  0  0  0
 33 35  1  0  0  0
 35 56  1  0  0  0
 36 37  2  0  0  0
 36 38  1  0  0  0
 38 57  1  0  0  0
 39 40  1  0  0  0
 40 41  2  0  0  0
 40 42  1  0  0  0
 42 43  1  0  0  0
 43 44  1  0  0  0
 43 48  1  0  0  0
 44 45  1  0  0  0
 45 46  2  0  0  0
 45 47  1  0  0  0
 47 58  1  0  0  0
 48 49  2  0  0  0
 48 50  1  0  0  0
 50 59  1  0  0  0
M  END
>  <AUTHOR>
    GENERATED BY OPEN BABEL 2.4.1

>  <CHROM.1>
-129.88973775,25.11013962,83.76777429,-4.31287699,-26.52014555,67.13876199
-109.99526425,-125.69778218,71.85488866,-50.34568622,30.60336545,-160.25109640
137.06469300,179.94991992,11.66761871,97.33053035,153.96916705,-66.13994066
23.96236625,-58.84411737,-59.65991090,133.80350704,39.01971626,-60.68820388
107.38600154,71.66154168,-124.41684414,-121.09886093,-24.64958587,-174.89131347
123.48710517,16.86606363,-67.88761144,99.14637992,-55.25103849,-174.87382353
-71.98005600,13.60096655,177.78503611,-1.14404855,-4.68268672,6.62414263
-0.81790835,-0.02445656,2.82129701

>  <COMPND>
    UNNAMED

>  <MASTER>
        0    0    0    0    0    0    0    0  109    0  109    0

>  <Name>
FB1.pdb

>  <RI>
0

>  <Rbt.Current_Directory>
/home/fc/tossine/F10/p3/2_clust03

>  <Rbt.Executable>
rbdock/0.1.0

>  <Rbt.Library>
librxdock.so/0.1.0

>  <Rbt.Parameter_File>
/cluster/rxdock/data/scripts/dock.prm

>  <Rbt.Receptor>
rx_0.prm

>  <SCORE>
78.9396

>  <SCORE.INTER>
25.7805

>  <SCORE.INTER.CONST>
1

>  <SCORE.INTER.POLAR>
-1.28738

>  <SCORE.INTER.REPUL>
1.04554

>  <SCORE.INTER.ROT>
32

>  <SCORE.INTER.VDW>
-12.4701

>  <SCORE.INTER.norm>
0.51561

>  <SCORE.INTRA>
53.1587

>  <SCORE.INTRA.DIHEDRAL>
79.3901

>  <SCORE.INTRA.DIHEDRAL.0>
47.3121

>  <SCORE.INTRA.POLAR>
1.35336

>  <SCORE.INTRA.POLAR.0>
-1.47808

>  <SCORE.INTRA.REPUL>
0.00148794

>  <SCORE.INTRA.REPUL.0>
0

>  <SCORE.INTRA.VDW>
8.85478

>  <SCORE.INTRA.VDW.0>
-2.78316

>  <SCORE.INTRA.norm>
1.06317

>  <SCORE.RESTR>
0.000339899

>  <SCORE.RESTR.CAVITY>
0.000339899

>  <SCORE.RESTR.norm>
6.79798e-06

>  <SCORE.SYSTEM>
0

>  <SCORE.SYSTEM.CONST>
0

>  <SCORE.SYSTEM.DIHEDRAL>
0

>  <SCORE.SYSTEM.norm>
0

>  <SCORE.heavy>
50

>  <SCORE.norm>
1.57879

$$$$
