FB1.pdb
  RxDock  10092023053D
librxdock.so/0.1.0
 59 58  0  0  0  0  0  0  0  0999 V2000
   -7.1594  -12.7280    5.8302 C   0  0  0  0  0  0
   -6.9419  -12.7973    7.3399 C   0  0  0  0  0  0
   -5.4575  -12.6414    7.7091 C   0  0  0  0  0  0
   -4.8955  -11.2262    7.4241 C   0  0  0  0  0  0
   -3.7805  -10.7449    8.4169 C   0  0  0  0  0  0
   -2.4580  -11.4529    8.0419 C   0  0  0  0  0  0
   -3.5931   -9.1695    8.4432 C   0  0  0  0  0  0
   -4.8582   -8.2956    8.8927 C   0  0  0  0  0  0
   -5.3064   -6.9238    8.2254 C   0  0  0  0  0  0
   -4.0810   -6.0248    7.5839 C   0  0  0  0  0  0
   -3.5760   -6.7233    6.3224 C   0  0  0  0  0  0
   -4.4250   -4.5030    7.2513 C   0  0  0  0  0  0
   -3.7705   -3.2364    8.0168 C   0  0  0  0  0  0
   -2.4419   -2.5587    7.5355 C   0  0  0  0  0  0
   -1.4843   -3.3798    6.5568 C   0  0  0  0  0  0
   -0.0221   -2.9318    6.1619 C   0  0  0  0  0  0
    1.0696   -2.8316    7.2599 C   0  0  0  0  0  0
    2.5587   -3.0747    6.7986 C   0  0  0  0  0  0
    3.0145   -2.3152    5.5464 C   0  0  0  0  0  0
    2.6425   -2.8989    4.1538 C   0  0  0  0  0  0
    2.5505   -1.9716    2.9060 C   0  0  0  0  0  0
    1.2737   -2.0683    2.0827 C   0  0  0  0  0  0
    2.8387   -0.5712    3.2696 N   0  0  0  0  0  0
    3.7099   -3.8328    3.8497 O   0  0  0  0  0  0
    3.4211   -2.7198    7.8848 O   0  0  0  0  0  0
   -4.7674   -2.2034    7.9412 O   0  0  0  0  0  0
   -6.0188   -9.1594    8.7538 O   0  0  0  0  0  0
   -6.8899   -8.8661    7.7535 C   0  0  0  0  0  0
   -7.4263   -9.6648    7.0094 O   0  0  0  0  0  0
   -7.1649   -7.3879    7.7802 C   0  0  0  0  0  0
   -8.1418   -6.9892    8.8978 C   0  0  0  0  0  0
   -7.8779   -7.7437   10.2072 C   0  0  0  0  0  0
   -8.5438   -9.1002   10.1984 C   0  0  0  0  0  0
   -9.4968   -9.3833    9.4805 O   0  0  0  0  0  0
   -7.9904   -9.9726   11.0536 O   0  0  0  0  0  0
   -7.9459   -5.4819    9.1115 C   0  0  0  0  0  0
   -8.5891   -4.6341    8.5116 O   0  0  0  0  0  0
   -6.9728   -5.1680    9.9779 O   0  0  0  0  0  0
   -2.3652   -8.7886    9.1829 O   0  0  0  0  0  0
   -1.3155   -8.2290    8.4737 C   0  0  0  0  0  0
   -1.3336   -7.9939    7.2725 O   0  0  0  0  0  0
   -0.1038   -7.9272    9.3653 C   0  0  0  0  0  0
    0.9550   -6.9526    8.7622 C   0  0  0  0  0  0
    1.2397   -7.0386    7.2516 C   0  0  0  0  0  0
    1.6747   -8.4073    6.8137 C   0  0  0  0  0  0
    2.6305   -9.0284    7.2577 O   0  0  0  0  0  0
    0.8773   -8.9198    5.8640 O   0  0  0  0  0  0
    0.7234   -5.4737    9.0960 C   0  0  0  0  0  0
   -0.3844   -4.9813    9.1798 O   0  0  0  0  0  0
    1.8328   -4.7675    9.3991 O   0  0  0  0  0  0
    2.0738    0.0213    2.9495 H   0  0  0  0  0  0
    3.6546   -0.2573    2.7393 H   0  0  0  0  0  0
    3.3698   -4.3589    3.0954 H   0  0  0  0  0  0
    3.1829   -3.2689    8.6543 H   0  0  0  0  0  0
   -5.1932   -2.2597    7.0694 H   0  0  0  0  0  0
   -7.1881   -9.6557   11.5111 H   0  0  0  0  0  0
   -6.7642   -4.2022   10.0279 H   0  0  0  0  0  0
    1.3228   -9.7257    5.5274 H   0  0  0  0  0  0
    1.6719   -3.8854    9.8018 H   0  0  0  0  0  0
  1  2  1  0  0  0
  2  3  1  0  0  0
  3  4  1  0  0  0
  4  5  1  0  0  0
  5  6  1  0  0  0
  5  7  1  0  0  0
  7  8  1  0  0  0
  7 39  1  0  0  0
  8  9  1  0  0  0
  8 27  1  0  0  0
  9 10  1  0  0  0
 10 11  1  0  0  0
 10 12  1  0  0  0
 12 13  1  0  0  0
 13 14  1  0  0  0
 13 26  1  0  0  0
 14 15  1  0  0  0
 15 16  1  0  0  0
 16 17  1  0  0  0
 17 18  1  0  0  0
 18 19  1  0  0  0
 18 25  1  0  0  0
 19 20  1  0  0  0
 20 21  1  0  0  0
 20 24  1  0  0  0
 21 22  1  0  0  0
 21 23  1  0  0  0
 23 51  1  0  0  0
 23 52  1  0  0  0
 24 53  1  0  0  0
 25 54  1  0  0  0
 26 55  1  0  0  0
 27 28  1  0  0  0
 28 29  2  0  0  0
 28 30  1  0  0  0
 30 31  1  0  0  0
 31 32  1  0  0  0
 31 36  1  0  0  0
 32 33  1  0  0  0
 33 34  2  0  0  0
 33 35  1  0  0  0
 35 56  1  0  0  0
 36 37  2  0  0  0
 36 38  1  0  0  0
 38 57  1  0  0  0
 39 40  1  0  0  0
 40 41  2  0  0  0
 40 42  1  0  0  0
 42 43  1  0  0  0
 43 44  1  0  0  0
 43 48  1  0  0  0
 44 45  1  0  0  0
 45 46  2  0  0  0
 45 47  1  0  0  0
 47 58  1  0  0  0
 48 49  2  0  0  0
 48 50  1  0  0  0
 50 59  1  0  0  0
M  END
>  <AUTHOR>
    GENERATED BY OPEN BABEL 2.4.1

>  <CHROM.1>
67.98723740,147.48604788,76.85182967,60.93029316,-139.65706096,112.23678239
-29.83347069,-109.86052030,71.27357667,113.45614251,89.43048130,-18.63255928
-37.77125342,-170.30035910,63.39003093,151.31546137,48.17680050,-81.54404873
58.59164024,155.57808034,-128.73510590,166.26972632,-126.52354094,137.81797831
-77.24415282,40.61926979,-83.64117289,90.53679547,-22.21709190,-5.20811339
172.33299380,1.72083283,-163.66301833,-36.52198720,-56.91325942,-35.94883072
-56.63625602,169.88037147,-167.05241500,-2.66468289,-6.61418460,7.55361598
-2.55931148,0.25182332,-0.10125764

>  <COMPND>
    UNNAMED

>  <MASTER>
        0    0    0    0    0    0    0    0  109    0  109    0

>  <Name>
FB1.pdb

>  <RI>
0

>  <Rbt.Current_Directory>
/home/fc/tossine/F10/p3/2_clust03

>  <Rbt.Executable>
rbdock/0.1.0

>  <Rbt.Library>
librxdock.so/0.1.0

>  <Rbt.Parameter_File>
/cluster/rxdock/data/scripts/dock.prm

>  <Rbt.Receptor>
rx_0.prm

>  <SCORE>
49.8349

>  <SCORE.INTER>
3.98789

>  <SCORE.INTER.CONST>
1

>  <SCORE.INTER.POLAR>
-3.80829

>  <SCORE.INTER.REPUL>
1.00383

>  <SCORE.INTER.ROT>
32

>  <SCORE.INTER.VDW>
-25.483

>  <SCORE.INTER.norm>
0.0797579

>  <SCORE.INTRA>
44.7078

>  <SCORE.INTRA.DIHEDRAL>
39.6094

>  <SCORE.INTRA.DIHEDRAL.0>
47.3121

>  <SCORE.INTRA.POLAR>
0.577789

>  <SCORE.INTRA.POLAR.0>
-1.47808

>  <SCORE.INTRA.REPUL>
0

>  <SCORE.INTRA.REPUL.0>
0

>  <SCORE.INTRA.VDW>
22.9386

>  <SCORE.INTRA.VDW.0>
-2.78316

>  <SCORE.INTRA.norm>
0.894157

>  <SCORE.RESTR>
1.13916

>  <SCORE.RESTR.CAVITY>
1.13916

>  <SCORE.RESTR.norm>
0.0227832

>  <SCORE.SYSTEM>
0

>  <SCORE.SYSTEM.CONST>
0

>  <SCORE.SYSTEM.DIHEDRAL>
0

>  <SCORE.SYSTEM.norm>
0

>  <SCORE.heavy>
50

>  <SCORE.norm>
0.996698

$$$$
