FB1.pdb
  RxDock  10102000113D
librxdock.so/0.1.0
 59 58  0  0  0  0  0  0  0  0999 V2000
   -5.1870   -1.2506    9.5745 C   0  0  0  0  0  0
   -3.6914   -1.5489    9.6478 C   0  0  0  0  0  0
   -2.9410   -1.0024    8.4220 C   0  0  0  0  0  0
   -1.4883   -1.5268    8.3029 C   0  0  0  0  0  0
   -0.7682   -1.1796    6.9533 C   0  0  0  0  0  0
   -0.3219    0.2997    7.0076 C   0  0  0  0  0  0
    0.4593   -2.1310    6.6275 C   0  0  0  0  0  0
    0.1903   -3.7091    6.6878 C   0  0  0  0  0  0
    0.5829   -4.6584    7.9014 C   0  0  0  0  0  0
   -0.1992   -6.1105    7.9349 C   0  0  0  0  0  0
    0.3251   -6.9166    9.1221 C   0  0  0  0  0  0
   -1.7923   -6.0499    7.9913 C   0  0  0  0  0  0
   -2.7564   -7.3374    7.8144 C   0  0  0  0  0  0
   -3.0369   -8.3438    8.9826 C   0  0  0  0  0  0
   -3.9422   -9.6234    8.6789 C   0  0  0  0  0  0
   -3.5549  -11.1013    9.0794 C   0  0  0  0  0  0
   -2.2929  -11.7561    8.4580 C   0  0  0  0  0  0
   -2.4637  -12.3997    7.0277 C   0  0  0  0  0  0
   -1.6121  -11.7950    5.9045 C   0  0  0  0  0  0
   -0.0640  -11.8658    6.0332 C   0  0  0  0  0  0
    0.5973  -12.4841    7.3004 C   0  0  0  0  0  0
    1.9586  -13.1367    7.1043 C   0  0  0  0  0  0
    0.6357  -11.5055    8.4037 N   0  0  0  0  0  0
    0.3575  -12.7166    4.9367 O   0  0  0  0  0  0
   -2.1560  -13.7941    7.1312 O   0  0  0  0  0  0
   -4.0418   -6.7924    7.4720 O   0  0  0  0  0  0
   -1.2458   -3.8822    6.5455 O   0  0  0  0  0  0
   -1.6845   -4.4904    5.4129 C   0  0  0  0  0  0
   -2.6990   -5.1516    5.2981 O   0  0  0  0  0  0
   -0.7563   -4.1266    4.2871 C   0  0  0  0  0  0
   -0.2622   -5.3563    3.5085 C   0  0  0  0  0  0
    0.6423   -4.9809    2.3277 C   0  0  0  0  0  0
    1.3378   -3.6618    2.5715 C   0  0  0  0  0  0
    0.9683   -2.5996    2.0825 O   0  0  0  0  0  0
    2.4035   -3.7609    3.3797 O   0  0  0  0  0  0
    0.5187   -6.2089    4.5181 C   0  0  0  0  0  0
    0.0075   -7.1078    5.1684 O   0  0  0  0  0  0
    1.8025   -5.8537    4.6658 O   0  0  0  0  0  0
    1.1269   -1.7304    5.3650 O   0  0  0  0  0  0
    2.4834   -1.4530    5.3961 C   0  0  0  0  0  0
    3.2938   -2.0202    6.1172 O   0  0  0  0  0  0
    2.8744   -0.3405    4.4144 C   0  0  0  0  0  0
    2.8569   -0.7327    2.9043 C   0  0  0  0  0  0
    2.7402    0.3970    1.8648 C   0  0  0  0  0  0
    1.3180    0.7239    1.5112 C   0  0  0  0  0  0
    0.6933    1.7020    1.8980 O   0  0  0  0  0  0
    0.7744   -0.1805    0.6825 O   0  0  0  0  0  0
    4.0185   -1.6332    2.4659 C   0  0  0  0  0  0
    3.9221   -2.4440    1.5658 O   0  0  0  0  0  0
    5.1987   -1.3945    3.0754 O   0  0  0  0  0  0
    1.5991  -11.2095    8.5543 H   0  0  0  0  0  0
    0.3671  -11.9786    9.2694 H   0  0  0  0  0  0
   -0.0266  -13.5946    5.1440 H   0  0  0  0  0  0
   -1.6317  -14.0488    6.3497 H   0  0  0  0  0  0
   -3.9382   -6.2626    6.6639 H   0  0  0  0  0  0
    2.5397   -4.6394    3.7836 H   0  0  0  0  0  0
    2.3282   -6.4513    5.2535 H   0  0  0  0  0  0
   -0.1660    0.0722    0.5681 H   0  0  0  0  0  0
    5.1973   -0.6480    3.7149 H   0  0  0  0  0  0
  1  2  1  0  0  0
  2  3  1  0  0  0
  3  4  1  0  0  0
  4  5  1  0  0  0
  5  6  1  0  0  0
  5  7  1  0  0  0
  7  8  1  0  0  0
  7 39  1  0  0  0
  8  9  1  0  0  0
  8 27  1  0  0  0
  9 10  1  0  0  0
 10 11  1  0  0  0
 10 12  1  0  0  0
 12 13  1  0  0  0
 13 14  1  0  0  0
 13 26  1  0  0  0
 14 15  1  0  0  0
 15 16  1  0  0  0
 16 17  1  0  0  0
 17 18  1  0  0  0
 18 19  1  0  0  0
 18 25  1  0  0  0
 19 20  1  0  0  0
 20 21  1  0  0  0
 20 24  1  0  0  0
 21 22  1  0  0  0
 21 23  1  0  0  0
 23 51  1  0  0  0
 23 52  1  0  0  0
 24 53  1  0  0  0
 25 54  1  0  0  0
 26 55  1  0  0  0
 27 28  1  0  0  0
 28 29  2  0  0  0
 28 30  1  0  0  0
 30 31  1  0  0  0
 31 32  1  0  0  0
 31 36  1  0  0  0
 32 33  1  0  0  0
 33 34  2  0  0  0
 33 35  1  0  0  0
 35 56  1  0  0  0
 36 37  2  0  0  0
 36 38  1  0  0  0
 38 57  1  0  0  0
 39 40  1  0  0  0
 40 41  2  0  0  0
 40 42  1  0  0  0
 42 43  1  0  0  0
 43 44  1  0  0  0
 43 48  1  0  0  0
 44 45  1  0  0  0
 45 46  2  0  0  0
 45 47  1  0  0  0
 47 58  1  0  0  0
 48 49  2  0  0  0
 48 50  1  0  0  0
 50 59  1  0  0  0
M  END
>  <AUTHOR>
    GENERATED BY OPEN BABEL 2.4.1

>  <CHROM.1>
-168.04870666,170.63553077,77.35973125,51.55102973,-100.39897439,124.21338808
161.76257334,113.19302904,177.92615916,170.71537456,80.11430756,-176.82301547
58.08033243,131.17196060,-63.22790190,-82.98280556,118.31617367,61.69894887
-138.68188544,-2.46306902,150.75135288,-65.01249799,-109.14930466,151.19009684
129.33409793,177.83311862,26.52132182,92.45450918,-100.50526049,-6.35310087
-174.76413175,34.06000213,-72.66634803,158.65507355,-90.02208961,149.74770715
104.25172108,175.44033924,-1.96381015,-0.08092308,-5.16365843,5.73155720
1.17846280,0.78494264,-0.07834539

>  <COMPND>
    UNNAMED

>  <MASTER>
        0    0    0    0    0    0    0    0  109    0  109    0

>  <Name>
FB1.pdb

>  <RI>
0

>  <Rbt.Current_Directory>
/home/fc/tossine/F10/p3/2_clust03

>  <Rbt.Executable>
rbdock/0.1.0

>  <Rbt.Library>
librxdock.so/0.1.0

>  <Rbt.Parameter_File>
/cluster/rxdock/data/scripts/dock.prm

>  <Rbt.Receptor>
rx_1.prm

>  <SCORE>
21.1023

>  <SCORE.INTER>
-1.35113

>  <SCORE.INTER.CONST>
1

>  <SCORE.INTER.POLAR>
-3.21509

>  <SCORE.INTER.REPUL>
0.0817606

>  <SCORE.INTER.ROT>
32

>  <SCORE.INTER.VDW>
-28.2286

>  <SCORE.INTER.norm>
-0.0270226

>  <SCORE.INTRA>
22.1425

>  <SCORE.INTRA.DIHEDRAL>
38.0925

>  <SCORE.INTRA.DIHEDRAL.0>
47.3121

>  <SCORE.INTRA.POLAR>
-0.395363

>  <SCORE.INTRA.POLAR.0>
-1.47808

>  <SCORE.INTRA.REPUL>
0.194267

>  <SCORE.INTRA.REPUL.0>
0

>  <SCORE.INTRA.VDW>
3.46922

>  <SCORE.INTRA.VDW.0>
-2.78316

>  <SCORE.INTRA.norm>
0.442851

>  <SCORE.RESTR>
0.310866

>  <SCORE.RESTR.CAVITY>
0.310866

>  <SCORE.RESTR.norm>
0.00621732

>  <SCORE.SYSTEM>
0

>  <SCORE.SYSTEM.CONST>
0

>  <SCORE.SYSTEM.DIHEDRAL>
0

>  <SCORE.SYSTEM.norm>
0

>  <SCORE.heavy>
50

>  <SCORE.norm>
0.422046

$$$$
