FB1.pdb
  RxDock  10102002253D
librxdock.so/0.1.0
 59 58  0  0  0  0  0  0  0  0999 V2000
    3.9915   -7.8264    8.5616 C   0  0  0  0  0  0
    3.2442   -6.7023    7.8479 C   0  0  0  0  0  0
    1.8099   -6.5452    8.3791 C   0  0  0  0  0  0
    0.9547   -5.5451    7.5617 C   0  0  0  0  0  0
   -0.4566   -5.2304    8.1695 C   0  0  0  0  0  0
   -0.2532   -4.4898    9.5115 C   0  0  0  0  0  0
   -1.3931   -4.3962    7.1973 C   0  0  0  0  0  0
   -1.5582   -4.9446    5.7013 C   0  0  0  0  0  0
   -0.3601   -5.2541    4.7028 C   0  0  0  0  0  0
    0.2814   -3.9341    3.9495 C   0  0  0  0  0  0
    0.7798   -2.9611    5.0167 C   0  0  0  0  0  0
    1.4483   -4.2212    2.9004 C   0  0  0  0  0  0
    2.1341   -3.0865    1.9726 C   0  0  0  0  0  0
    3.0526   -1.9616    2.5619 C   0  0  0  0  0  0
    2.3577   -0.6788    3.2106 C   0  0  0  0  0  0
    2.9102    0.7947    3.0757 C   0  0  0  0  0  0
    4.1278    1.2359    3.9302 C   0  0  0  0  0  0
    3.8922    1.3550    5.4856 C   0  0  0  0  0  0
    3.5536    2.7536    6.0163 C   0  0  0  0  0  0
    4.5697    3.9037    5.7649 C   0  0  0  0  0  0
    4.2538    5.3551    6.2327 C   0  0  0  0  0  0
    3.9328    5.5361    7.7097 C   0  0  0  0  0  0
    5.3143    6.2875    5.8055 N   0  0  0  0  0  0
    5.7529    3.5182    6.5100 O   0  0  0  0  0  0
    2.8293    0.4641    5.8409 O   0  0  0  0  0  0
    2.9713   -3.8135    1.0577 O   0  0  0  0  0  0
   -2.2730   -6.2057    5.8073 O   0  0  0  0  0  0
   -1.6045   -7.2488    6.3643 C   0  0  0  0  0  0
   -0.4710   -7.6011    6.0985 O   0  0  0  0  0  0
   -2.4642   -7.8420    7.4461 C   0  0  0  0  0  0
   -2.9262   -9.2704    7.1163 C   0  0  0  0  0  0
   -2.7628  -10.2304    8.3017 C   0  0  0  0  0  0
   -3.6062  -11.4708    8.1188 C   0  0  0  0  0  0
   -3.2573  -12.4352    7.4466 O   0  0  0  0  0  0
   -4.7797  -11.4193    8.7662 O   0  0  0  0  0  0
   -4.4082   -9.1565    6.7331 C   0  0  0  0  0  0
   -4.8080   -9.2433    5.5820 O   0  0  0  0  0  0
   -5.2278   -8.9034    7.7628 O   0  0  0  0  0  0
   -2.7035   -4.1106    7.8308 O   0  0  0  0  0  0
   -3.4756   -3.0837    7.3136 C   0  0  0  0  0  0
   -3.1477   -2.3713    6.3738 O   0  0  0  0  0  0
   -4.8109   -2.9278    8.0533 C   0  0  0  0  0  0
   -5.5433   -4.2568    8.4163 C   0  0  0  0  0  0
   -7.0152   -4.4108    7.9916 C   0  0  0  0  0  0
   -7.3130   -5.7509    7.3834 C   0  0  0  0  0  0
   -7.3086   -6.8207    7.9768 O   0  0  0  0  0  0
   -7.6159   -5.6665    6.0790 O   0  0  0  0  0  0
   -4.8095   -5.5299    7.9769 C   0  0  0  0  0  0
   -4.5017   -6.4149    8.7505 O   0  0  0  0  0  0
   -4.6181   -5.6586    6.6472 O   0  0  0  0  0  0
    6.0324    6.3300    6.5273 H   0  0  0  0  0  0
    4.9233    7.2315    5.7670 H   0  0  0  0  0  0
    5.4541    3.4756    7.4428 H   0  0  0  0  0  0
    2.0155    0.7703    5.3998 H   0  0  0  0  0  0
    2.9706   -3.3405    0.2087 H   0  0  0  0  0  0
   -5.3305  -12.2224    8.6948 H   0  0  0  0  0  0
   -5.0300   -8.0640    8.2476 H   0  0  0  0  0  0
   -7.7434   -6.5848    5.7598 H   0  0  0  0  0  0
   -4.5358   -6.5827    6.3225 H   0  0  0  0  0  0
  1  2  1  0  0  0
  2  3  1  0  0  0
  3  4  1  0  0  0
  4  5  1  0  0  0
  5  6  1  0  0  0
  5  7  1  0  0  0
  7  8  1  0  0  0
  7 39  1  0  0  0
  8  9  1  0  0  0
  8 27  1  0  0  0
  9 10  1  0  0  0
 10 11  1  0  0  0
 10 12  1  0  0  0
 12 13  1  0  0  0
 13 14  1  0  0  0
 13 26  1  0  0  0
 14 15  1  0  0  0
 15 16  1  0  0  0
 16 17  1  0  0  0
 17 18  1  0  0  0
 18 19  1  0  0  0
 18 25  1  0  0  0
 19 20  1  0  0  0
 20 21  1  0  0  0
 20 24  1  0  0  0
 21 22  1  0  0  0
 21 23  1  0  0  0
 23 51  1  0  0  0
 23 52  1  0  0  0
 24 53  1  0  0  0
 25 54  1  0  0  0
 26 55  1  0  0  0
 27 28  1  0  0  0
 28 29  2  0  0  0
 28 30  1  0  0  0
 30 31  1  0  0  0
 31 32  1  0  0  0
 31 36  1  0  0  0
 32 33  1  0  0  0
 33 34  2  0  0  0
 33 35  1  0  0  0
 35 56  1  0  0  0
 36 37  2  0  0  0
 36 38  1  0  0  0
 38 57  1  0  0  0
 39 40  1  0  0  0
 40 41  2  0  0  0
 40 42  1  0  0  0
 42 43  1  0  0  0
 43 44  1  0  0  0
 43 48  1  0  0  0
 44 45  1  0  0  0
 45 46  2  0  0  0
 45 47  1  0  0  0
 47 58  1  0  0  0
 48 49  2  0  0  0
 48 50  1  0  0  0
 50 59  1  0  0  0
M  END
>  <AUTHOR>
    GENERATED BY OPEN BABEL 2.4.1

>  <CHROM.1>
-172.44091246,-173.14037172,65.72837690,50.61878434,-54.54323523,161.05624499
-79.76669859,-69.63526143,58.28944529,175.13793427,69.18446715,-81.62161287
146.05177796,-142.26996679,-76.60956939,-68.41295217,-95.61723321,-58.60804554
-64.15848280,177.64108413,55.85624075,-61.35300207,-89.47590028,-46.82552657
113.99171680,134.20473966,161.79658729,105.59817469,82.55733539,-177.67703069
59.28412417,-1.12449358,-41.71541751,-127.56344888,135.09246528,123.70341600
68.20395741,176.86375707,-153.63968194,-0.83397577,-4.17495888,6.41956384
-2.26752319,0.30173510,0.03058261

>  <COMPND>
    UNNAMED

>  <MASTER>
        0    0    0    0    0    0    0    0  109    0  109    0

>  <Name>
FB1.pdb

>  <RI>
0

>  <Rbt.Current_Directory>
/home/fc/tossine/F10/p3/2_clust03

>  <Rbt.Executable>
rbdock/0.1.0

>  <Rbt.Library>
librxdock.so/0.1.0

>  <Rbt.Parameter_File>
/cluster/rxdock/data/scripts/dock.prm

>  <Rbt.Receptor>
rx_4.prm

>  <SCORE>
35.0403

>  <SCORE.INTER>
11.826

>  <SCORE.INTER.CONST>
1

>  <SCORE.INTER.POLAR>
-1.94008

>  <SCORE.INTER.REPUL>
0.812818

>  <SCORE.INTER.ROT>
32

>  <SCORE.INTER.VDW>
-23.0418

>  <SCORE.INTER.norm>
0.23652

>  <SCORE.INTRA>
22.2886

>  <SCORE.INTRA.DIHEDRAL>
35.2954

>  <SCORE.INTRA.DIHEDRAL.0>
47.3121

>  <SCORE.INTRA.POLAR>
1.11727

>  <SCORE.INTRA.POLAR.0>
-1.47808

>  <SCORE.INTRA.REPUL>
0

>  <SCORE.INTRA.REPUL.0>
0

>  <SCORE.INTRA.VDW>
0.842234

>  <SCORE.INTRA.VDW.0>
-2.78316

>  <SCORE.INTRA.norm>
0.445773

>  <SCORE.RESTR>
0.925682

>  <SCORE.RESTR.CAVITY>
0.925682

>  <SCORE.RESTR.norm>
0.0185136

>  <SCORE.SYSTEM>
0

>  <SCORE.SYSTEM.CONST>
0

>  <SCORE.SYSTEM.DIHEDRAL>
0

>  <SCORE.SYSTEM.norm>
0

>  <SCORE.heavy>
50

>  <SCORE.norm>
0.700806

$$$$
