FB1.pdb
  RxDock  10092023053D
librxdock.so/0.1.0
 59 58  0  0  0  0  0  0  0  0999 V2000
   -0.9330    2.3647    9.2630 C   0  0  0  0  0  0
   -1.7548    1.9541    8.0434 C   0  0  0  0  0  0
   -1.2304    0.6522    7.4156 C   0  0  0  0  0  0
   -1.7872   -0.6265    8.0898 C   0  0  0  0  0  0
   -1.5245   -1.9575    7.3024 C   0  0  0  0  0  0
   -2.4851   -2.0031    6.0917 C   0  0  0  0  0  0
   -0.0172   -2.1314    6.8377 C   0  0  0  0  0  0
    0.6246   -3.5914    6.9880 C   0  0  0  0  0  0
    1.2887   -4.1670    8.3131 C   0  0  0  0  0  0
    2.9143   -4.4324    8.2225 C   0  0  0  0  0  0
    3.6224   -3.0812    8.1379 C   0  0  0  0  0  0
    3.5523   -5.2978    9.4010 C   0  0  0  0  0  0
    3.1819   -6.8456    9.6934 C   0  0  0  0  0  0
    3.7193   -7.6155   10.9482 C   0  0  0  0  0  0
    5.0778   -8.4421   10.8051 C   0  0  0  0  0  0
    5.2125   -9.7990   10.0081 C   0  0  0  0  0  0
    5.2160   -9.7773    8.4566 C   0  0  0  0  0  0
    6.6257   -9.6745    7.7556 C   0  0  0  0  0  0
    7.4498   -8.4192    8.0678 C   0  0  0  0  0  0
    8.9778   -8.4499    7.7806 C   0  0  0  0  0  0
    9.9371   -9.2759    8.6878 C   0  0  0  0  0  0
   11.0841   -9.9907    7.9872 C   0  0  0  0  0  0
   10.4331   -8.4576    9.8106 N   0  0  0  0  0  0
    9.0927   -9.0523    6.4661 O   0  0  0  0  0  0
    7.3904  -10.8254    8.1305 O   0  0  0  0  0  0
    1.7506   -6.8643    9.8264 O   0  0  0  0  0  0
   -0.4360   -4.5355    6.6777 O   0  0  0  0  0  0
   -1.3730   -4.7481    7.6379 C   0  0  0  0  0  0
   -1.4104   -4.2244    8.7351 O   0  0  0  0  0  0
   -2.4238   -5.6690    7.0819 C   0  0  0  0  0  0
   -2.6467   -6.9097    7.9614 C   0  0  0  0  0  0
   -4.1275   -7.2953    8.0708 C   0  0  0  0  0  0
   -4.3119   -8.5032    8.9599 C   0  0  0  0  0  0
   -4.7236   -9.5856    8.5567 O   0  0  0  0  0  0
   -3.9795   -8.2802   10.2400 O   0  0  0  0  0  0
   -1.8559   -8.0452    7.2972 C   0  0  0  0  0  0
   -0.8343   -8.5147    7.7749 O   0  0  0  0  0  0
   -2.3517   -8.4492    6.1195 O   0  0  0  0  0  0
    0.1929   -1.5705    5.4808 O   0  0  0  0  0  0
    1.4215   -1.7626    4.8712 C   0  0  0  0  0  0
    2.4320   -2.1453    5.4464 O   0  0  0  0  0  0
    1.3857   -1.4411    3.3713 C   0  0  0  0  0  0
    2.3685   -0.3274    2.8937 C   0  0  0  0  0  0
    1.8143    0.7854    1.9854 C   0  0  0  0  0  0
    0.5570    0.3857    1.2685 C   0  0  0  0  0  0
   -0.4753    0.0000    1.7995 O   0  0  0  0  0  0
    0.6635    0.5117   -0.0631 O   0  0  0  0  0  0
    3.1535    0.3563    4.0200 C   0  0  0  0  0  0
    4.2644    0.8227    3.8617 O   0  0  0  0  0  0
    2.4863    0.5052    5.1836 O   0  0  0  0  0  0
   11.1744   -8.9649   10.2918 H   0  0  0  0  0  0
    9.6857   -8.3646   10.5021 H   0  0  0  0  0  0
    9.4292   -8.3314    5.8930 H   0  0  0  0  0  0
    6.8621  -11.6200    7.9305 H   0  0  0  0  0  0
    1.4578   -7.7905    9.7954 H   0  0  0  0  0  0
   -3.1050   -7.8682   10.3776 H   0  0  0  0  0  0
   -3.1706   -7.9729    5.8343 H   0  0  0  0  0  0
   -0.2001    0.2420   -0.4411 H   0  0  0  0  0  0
    2.9965    0.9299    5.9085 H   0  0  0  0  0  0
  1  2  1  0  0  0
  2  3  1  0  0  0
  3  4  1  0  0  0
  4  5  1  0  0  0
  5  6  1  0  0  0
  5  7  1  0  0  0
  7  8  1  0  0  0
  7 39  1  0  0  0
  8  9  1  0  0  0
  8 27  1  0  0  0
  9 10  1  0  0  0
 10 11  1  0  0  0
 10 12  1  0  0  0
 12 13  1  0  0  0
 13 14  1  0  0  0
 13 26  1  0  0  0
 14 15  1  0  0  0
 15 16  1  0  0  0
 16 17  1  0  0  0
 17 18  1  0  0  0
 18 19  1  0  0  0
 18 25  1  0  0  0
 19 20  1  0  0  0
 20 21  1  0  0  0
 20 24  1  0  0  0
 21 22  1  0  0  0
 21 23  1  0  0  0
 23 51  1  0  0  0
 23 52  1  0  0  0
 24 53  1  0  0  0
 25 54  1  0  0  0
 26 55  1  0  0  0
 27 28  1  0  0  0
 28 29  2  0  0  0
 28 30  1  0  0  0
 30 31  1  0  0  0
 31 32  1  0  0  0
 31 36  1  0  0  0
 32 33  1  0  0  0
 33 34  2  0  0  0
 33 35  1  0  0  0
 35 56  1  0  0  0
 36 37  2  0  0  0
 36 38  1  0  0  0
 38 57  1  0  0  0
 39 40  1  0  0  0
 40 41  2  0  0  0
 40 42  1  0  0  0
 42 43  1  0  0  0
 43 44  1  0  0  0
 43 48  1  0  0  0
 44 45  1  0  0  0
 45 46  2  0  0  0
 45 47  1  0  0  0
 47 58  1  0  0  0
 48 49  2  0  0  0
 48 50  1  0  0  0
 50 59  1  0  0  0
M  END
>  <AUTHOR>
    GENERATED BY OPEN BABEL 2.4.1

>  <CHROM.1>
84.62137251,167.68741833,-74.80708084,138.53649482,-84.62129116,-173.52080945
-113.24145007,-76.86893676,69.02975439,63.73504354,-173.55923488,-92.31378498
166.95208968,-72.43276963,74.44131671,91.77698365,-60.98554533,161.52903497
53.12322778,-72.69732257,142.08693692,113.06956458,-170.39774736,-0.03190150
125.55736716,140.16339494,-179.05004097,109.02966640,-114.56022231,-49.95609981
-0.78802329,-13.98808606,121.02086503,-132.04284400,-21.74140519,150.38435859
56.92681500,-179.28624290,179.01452122,1.76181808,-4.71688000,7.06921510
-2.26540999,-0.12362600,2.63444312

>  <COMPND>
    UNNAMED

>  <MASTER>
        0    0    0    0    0    0    0    0  109    0  109    0

>  <Name>
FB1.pdb

>  <RI>
0

>  <Rbt.Current_Directory>
/home/fc/tossine/F10/p3/2_clust03

>  <Rbt.Executable>
rbdock/0.1.0

>  <Rbt.Library>
librxdock.so/0.1.0

>  <Rbt.Parameter_File>
/cluster/rxdock/data/scripts/dock.prm

>  <Rbt.Receptor>
rx_0.prm

>  <SCORE>
31.3258

>  <SCORE.INTER>
4.67542

>  <SCORE.INTER.CONST>
1

>  <SCORE.INTER.POLAR>
-2.34854

>  <SCORE.INTER.REPUL>
1.34592

>  <SCORE.INTER.ROT>
32

>  <SCORE.INTER.VDW>
-31.4692

>  <SCORE.INTER.norm>
0.0935085

>  <SCORE.INTRA>
26.0403

>  <SCORE.INTRA.DIHEDRAL>
33.313

>  <SCORE.INTRA.DIHEDRAL.0>
47.3121

>  <SCORE.INTRA.POLAR>
1.47808

>  <SCORE.INTRA.POLAR.0>
-1.47808

>  <SCORE.INTRA.REPUL>
0

>  <SCORE.INTRA.REPUL.0>
0

>  <SCORE.INTRA.VDW>
4.3583

>  <SCORE.INTRA.VDW.0>
-2.78316

>  <SCORE.INTRA.norm>
0.520805

>  <SCORE.RESTR>
0.610151

>  <SCORE.RESTR.CAVITY>
0.610151

>  <SCORE.RESTR.norm>
0.012203

>  <SCORE.SYSTEM>
0

>  <SCORE.SYSTEM.CONST>
0

>  <SCORE.SYSTEM.DIHEDRAL>
0

>  <SCORE.SYSTEM.norm>
0

>  <SCORE.heavy>
50

>  <SCORE.norm>
0.626517

$$$$
