FB1.pdb
  RxDock  10102001033D
librxdock.so/0.1.0
 59 58  0  0  0  0  0  0  0  0999 V2000
    3.1494   -3.1584    1.3476 C   0  0  0  0  0  0
    1.6718   -3.3237    1.0003 C   0  0  0  0  0  0
    0.9355   -4.1849    2.0397 C   0  0  0  0  0  0
    0.1798   -3.3538    3.1065 C   0  0  0  0  0  0
    1.0811   -2.3907    3.9552 C   0  0  0  0  0  0
    1.2701   -1.0774    3.1614 C   0  0  0  0  0  0
    0.5064   -2.0995    5.4054 C   0  0  0  0  0  0
   -1.0875   -2.0515    5.5581 C   0  0  0  0  0  0
   -2.0171   -3.3082    5.8495 C   0  0  0  0  0  0
   -2.4295   -3.5211    7.4325 C   0  0  0  0  0  0
   -3.9412   -3.7254    7.5167 C   0  0  0  0  0  0
   -1.6861   -4.7059    8.1995 C   0  0  0  0  0  0
   -1.7803   -6.2638    7.7720 C   0  0  0  0  0  0
   -3.1095   -7.0865    7.8827 C   0  0  0  0  0  0
   -3.0134   -8.6321    8.2712 C   0  0  0  0  0  0
   -4.2362   -9.6315    8.2497 C   0  0  0  0  0  0
   -5.5662   -9.1982    7.5782 C   0  0  0  0  0  0
   -6.8582  -10.0071    7.9849 C   0  0  0  0  0  0
   -6.7758  -11.5326    7.8481 C   0  0  0  0  0  0
   -7.2257  -12.1780    6.5068 C   0  0  0  0  0  0
   -8.7386  -12.3411    6.1752 C   0  0  0  0  0  0
   -9.6824  -11.3222    6.7985 C   0  0  0  0  0  0
   -8.9502  -12.4337    4.7181 N   0  0  0  0  0  0
   -6.7099  -11.2916    5.4811 O   0  0  0  0  0  0
   -7.1687   -9.6886    9.3457 O   0  0  0  0  0  0
   -1.4413   -6.2847    6.3751 O   0  0  0  0  0  0
   -1.3633   -1.1380    6.6545 O   0  0  0  0  0  0
   -1.1320    0.1817    6.4308 C   0  0  0  0  0  0
   -0.9977    0.7148    5.3458 O   0  0  0  0  0  0
   -1.1697    0.9019    7.7504 C   0  0  0  0  0  0
   -2.4795    0.6603    8.5176 C   0  0  0  0  0  0
   -2.4691   -0.6598    9.2990 C   0  0  0  0  0  0
   -3.7658   -0.8598   10.0486 C   0  0  0  0  0  0
   -4.6198    0.0117   10.1711 O   0  0  0  0  0  0
   -3.8976   -2.0885   10.5699 O   0  0  0  0  0  0
   -2.6256    1.8425    9.4856 C   0  0  0  0  0  0
   -1.8003    2.1049   10.3472 O   0  0  0  0  0  0
   -3.7617    2.5384    9.3411 O   0  0  0  0  0  0
    1.1338   -2.9838    6.4174 O   0  0  0  0  0  0
    0.9408   -4.3509    6.3085 C   0  0  0  0  0  0
    0.4489   -4.9094    5.3367 O   0  0  0  0  0  0
    1.4166   -5.1088    7.5549 C   0  0  0  0  0  0
    2.9514   -5.3763    7.6402 C   0  0  0  0  0  0
    3.8935   -4.1618    7.7292 C   0  0  0  0  0  0
    3.3409   -3.0516    8.5756 C   0  0  0  0  0  0
    2.7249   -2.0786    8.1629 O   0  0  0  0  0  0
    3.5760   -3.2376    9.8835 O   0  0  0  0  0  0
    3.3677   -6.3545    8.7457 C   0  0  0  0  0  0
    2.9730   -6.2629    9.8913 O   0  0  0  0  0  0
    4.1233   -7.3974    8.3422 O   0  0  0  0  0  0
   -9.1250  -11.5012    4.3460 H   0  0  0  0  0  0
   -9.8144  -12.9523    4.5458 H   0  0  0  0  0  0
   -5.7357  -11.3839    5.5423 H   0  0  0  0  0  0
   -7.8051  -10.3495    9.6752 H   0  0  0  0  0  0
   -0.7234   -6.9277    6.2495 H   0  0  0  0  0  0
   -4.7310   -2.2489   11.0529 H   0  0  0  0  0  0
   -3.8934    3.2526   10.0130 H   0  0  0  0  0  0
    3.1912   -2.4664   10.3509 H   0  0  0  0  0  0
    4.3893   -8.0225    9.0526 H   0  0  0  0  0  0
  1  2  1  0  0  0
  2  3  1  0  0  0
  3  4  1  0  0  0
  4  5  1  0  0  0
  5  6  1  0  0  0
  5  7  1  0  0  0
  7  8  1  0  0  0
  7 39  1  0  0  0
  8  9  1  0  0  0
  8 27  1  0  0  0
  9 10  1  0  0  0
 10 11  1  0  0  0
 10 12  1  0  0  0
 12 13  1  0  0  0
 13 14  1  0  0  0
 13 26  1  0  0  0
 14 15  1  0  0  0
 15 16  1  0  0  0
 16 17  1  0  0  0
 17 18  1  0  0  0
 18 19  1  0  0  0
 18 25  1  0  0  0
 19 20  1  0  0  0
 20 21  1  0  0  0
 20 24  1  0  0  0
 21 22  1  0  0  0
 21 23  1  0  0  0
 23 51  1  0  0  0
 23 52  1  0  0  0
 24 53  1  0  0  0
 25 54  1  0  0  0
 26 55  1  0  0  0
 27 28  1  0  0  0
 28 29  2  0  0  0
 28 30  1  0  0  0
 30 31  1  0  0  0
 31 32  1  0  0  0
 31 36  1  0  0  0
 32 33  1  0  0  0
 33 34  2  0  0  0
 33 35  1  0  0  0
 35 56  1  0  0  0
 36 37  2  0  0  0
 36 38  1  0  0  0
 38 57  1  0  0  0
 39 40  1  0  0  0
 40 41  2  0  0  0
 40 42  1  0  0  0
 42 43  1  0  0  0
 43 44  1  0  0  0
 43 48  1  0  0  0
 44 45  1  0  0  0
 45 46  2  0  0  0
 45 47  1  0  0  0
 47 58  1  0  0  0
 48 49  2  0  0  0
 48 50  1  0  0  0
 50 59  1  0  0  0
M  END
>  <AUTHOR>
    GENERATED BY OPEN BABEL 2.4.1

>  <CHROM.1>
97.39959075,-59.55146583,84.00358191,-33.39505796,87.91738254,-62.85063913
97.16516027,70.68428707,130.66613132,-60.85319392,-67.09249531,-145.15296726
126.64690669,-172.18530821,11.64722305,-160.71049424,-52.93353159,-91.26058408
-165.03509977,-77.04278229,28.50881791,66.98607533,-92.06611137,17.01043720
-55.06387097,82.40621411,179.56298124,-59.61612911,-10.11791296,-179.42281244
175.07335055,10.85288514,-80.51125495,63.33614050,37.85905726,-48.40642642
-95.52020658,179.42259099,179.96466694,-1.67951366,-4.53215228,7.10663479
-0.84734053,-0.34312422,-2.85318736

>  <COMPND>
    UNNAMED

>  <MASTER>
        0    0    0    0    0    0    0    0  109    0  109    0

>  <Name>
FB1.pdb

>  <RI>
0

>  <Rbt.Current_Directory>
/home/fc/tossine/F10/p3/2_clust03

>  <Rbt.Executable>
rbdock/0.1.0

>  <Rbt.Library>
librxdock.so/0.1.0

>  <Rbt.Parameter_File>
/cluster/rxdock/data/scripts/dock.prm

>  <Rbt.Receptor>
rx_2.prm

>  <SCORE>
16.214

>  <SCORE.INTER>
1.88991

>  <SCORE.INTER.CONST>
1

>  <SCORE.INTER.POLAR>
-2.33048

>  <SCORE.INTER.REPUL>
0.299263

>  <SCORE.INTER.ROT>
32

>  <SCORE.INTER.VDW>
-29.0828

>  <SCORE.INTER.norm>
0.0377983

>  <SCORE.INTRA>
13.621

>  <SCORE.INTRA.DIHEDRAL>
21.828

>  <SCORE.INTRA.DIHEDRAL.0>
47.3121

>  <SCORE.INTRA.POLAR>
1.47808

>  <SCORE.INTRA.POLAR.0>
-1.47808

>  <SCORE.INTRA.REPUL>
0

>  <SCORE.INTRA.REPUL.0>
0

>  <SCORE.INTRA.VDW>
-2.31846

>  <SCORE.INTRA.VDW.0>
-2.78316

>  <SCORE.INTRA.norm>
0.27242

>  <SCORE.RESTR>
0.703114

>  <SCORE.RESTR.CAVITY>
0.703114

>  <SCORE.RESTR.norm>
0.0140623

>  <SCORE.SYSTEM>
0

>  <SCORE.SYSTEM.CONST>
0

>  <SCORE.SYSTEM.DIHEDRAL>
0

>  <SCORE.SYSTEM.norm>
0

>  <SCORE.heavy>
50

>  <SCORE.norm>
0.32428

$$$$
