FB1.pdb
  RxDock  10102000023D
librxdock.so/0.1.0
 59 58  0  0  0  0  0  0  0  0999 V2000
   -0.9991    0.7205    7.3253 C   0  0  0  0  0  0
    0.5087    0.6750    7.0889 C   0  0  0  0  0  0
    1.0072   -0.7627    6.8680 C   0  0  0  0  0  0
    2.5514   -0.8860    6.8566 C   0  0  0  0  0  0
    3.0972   -2.3489    6.7073 C   0  0  0  0  0  0
    4.3209   -2.5080    7.6389 C   0  0  0  0  0  0
    2.0086   -3.4644    7.0048 C   0  0  0  0  0  0
    1.2356   -4.0788    5.7434 C   0  0  0  0  0  0
   -0.3182   -3.9100    5.4513 C   0  0  0  0  0  0
   -1.0553   -2.6842    6.2731 C   0  0  0  0  0  0
   -2.5057   -2.5882    5.8027 C   0  0  0  0  0  0
   -1.0145   -2.7807    7.8649 C   0  0  0  0  0  0
   -1.4587   -4.0895    8.7065 C   0  0  0  0  0  0
   -2.3625   -5.2146    8.0953 C   0  0  0  0  0  0
   -1.6902   -6.2722    7.1061 C   0  0  0  0  0  0
   -0.6115   -7.3390    7.5455 C   0  0  0  0  0  0
   -0.9324   -8.3175    8.7061 C   0  0  0  0  0  0
   -1.1965   -9.8213    8.3086 C   0  0  0  0  0  0
    0.0102  -10.6060    7.7788 C   0  0  0  0  0  0
   -0.1116  -12.1514    7.6558 C   0  0  0  0  0  0
   -1.2603  -12.7907    6.8209 C   0  0  0  0  0  0
   -2.6260  -12.8609    7.4898 C   0  0  0  0  0  0
   -1.3566  -12.1604    5.4905 N   0  0  0  0  0  0
    1.1100  -12.5647    6.9918 O   0  0  0  0  0  0
   -1.7096  -10.4991    9.4605 O   0  0  0  0  0  0
   -0.2257   -4.7440    9.0500 O   0  0  0  0  0  0
    1.8850   -3.5326    4.5634 O   0  0  0  0  0  0
    1.5856   -2.2495    4.2328 C   0  0  0  0  0  0
    0.4764   -1.7507    4.2174 O   0  0  0  0  0  0
    2.8710   -1.5098    3.9838 C   0  0  0  0  0  0
    3.2230   -1.4239    2.4901 C   0  0  0  0  0  0
    3.8037   -0.0587    2.0997 C   0  0  0  0  0  0
    2.7082    0.9631    1.9014 C   0  0  0  0  0  0
    1.8179    0.8495    1.0659 O   0  0  0  0  0  0
    2.7999    2.0126    2.7314 O   0  0  0  0  0  0
    4.2593   -2.5274    2.2367 C   0  0  0  0  0  0
    4.1146   -3.3968    1.3907 O   0  0  0  0  0  0
    5.3190   -2.4896    3.0562 O   0  0  0  0  0  0
    2.5540   -4.5223    7.8898 O   0  0  0  0  0  0
    2.1076   -5.8217    7.7162 C   0  0  0  0  0  0
    1.8514   -6.3312    6.6330 O   0  0  0  0  0  0
    1.9647   -6.5727    9.0466 C   0  0  0  0  0  0
    2.9949   -7.7187    9.2916 C   0  0  0  0  0  0
    4.2088   -7.8137    8.3494 C   0  0  0  0  0  0
    5.0125   -9.0656    8.5526 C   0  0  0  0  0  0
    4.9410  -10.0782    7.8699 O   0  0  0  0  0  0
    5.8668   -8.9654    9.5824 O   0  0  0  0  0  0
    3.5284   -7.8004   10.7272 C   0  0  0  0  0  0
    3.2126   -8.6837   11.4997 O   0  0  0  0  0  0
    4.4626   -6.8820   11.0513 O   0  0  0  0  0  0
   -1.0641  -11.1867    5.5602 H   0  0  0  0  0  0
   -2.3414  -12.1208    5.2183 H   0  0  0  0  0  0
    0.9468  -13.4961    6.7326 H   0  0  0  0  0  0
   -2.5634  -10.0924    9.6975 H   0  0  0  0  0  0
    0.1993   -4.2322    9.7585 H   0  0  0  0  0  0
    2.1309    2.7108    2.5956 H   0  0  0  0  0  0
    5.5278   -1.5917    3.4153 H   0  0  0  0  0  0
    5.8498   -8.0289    9.8720 H   0  0  0  0  0  0
    4.3158   -5.9844   10.6785 H   0  0  0  0  0  0
  1  2  1  0  0  0
  2  3  1  0  0  0
  3  4  1  0  0  0
  4  5  1  0  0  0
  5  6  1  0  0  0
  5  7  1  0  0  0
  7  8  1  0  0  0
  7 39  1  0  0  0
  8  9  1  0  0  0
  8 27  1  0  0  0
  9 10  1  0  0  0
 10 11  1  0  0  0
 10 12  1  0  0  0
 12 13  1  0  0  0
 13 14  1  0  0  0
 13 26  1  0  0  0
 14 15  1  0  0  0
 15 16  1  0  0  0
 16 17  1  0  0  0
 17 18  1  0  0  0
 18 19  1  0  0  0
 18 25  1  0  0  0
 19 20  1  0  0  0
 20 21  1  0  0  0
 20 24  1  0  0  0
 21 22  1  0  0  0
 21 23  1  0  0  0
 23 51  1  0  0  0
 23 52  1  0  0  0
 24 53  1  0  0  0
 25 54  1  0  0  0
 26 55  1  0  0  0
 27 28  1  0  0  0
 28 29  2  0  0  0
 28 30  1  0  0  0
 30 31  1  0  0  0
 31 32  1  0  0  0
 31 36  1  0  0  0
 32 33  1  0  0  0
 33 34  2  0  0  0
 33 35  1  0  0  0
 35 56  1  0  0  0
 36 37  2  0  0  0
 36 38  1  0  0  0
 38 57  1  0  0  0
 39 40  1  0  0  0
 40 41  2  0  0  0
 40 42  1  0  0  0
 42 43  1  0  0  0
 43 44  1  0  0  0
 43 48  1  0  0  0
 44 45  1  0  0  0
 45 46  2  0  0  0
 45 47  1  0  0  0
 47 58  1  0  0  0
 48 49  2  0  0  0
 48 50  1  0  0  0
 50 59  1  0  0  0
M  END
>  <AUTHOR>
    GENERATED BY OPEN BABEL 2.4.1

>  <CHROM.1>
-170.49777247,177.00086037,-140.07841180,95.89895928,-114.35326063,-146.68801395
17.66994724,-77.08069623,175.66542818,-51.12177865,-18.91882959,77.85941396
74.44893650,66.99830687,55.24885372,107.88089142,68.29996422,167.36429721
63.12759867,55.81358468,-79.17544976,-167.55583594,-30.90970755,-44.58784368
97.69611418,140.30498947,-80.70707777,124.48378581,-60.43050624,177.05800703
-26.64102841,36.84672070,-110.47750583,12.02703969,-171.40476137,108.02243342
99.13232981,-8.46437629,38.53217511,1.45556050,-5.21848617,6.64976948,1.43012197
-0.00947344,-0.43516114

>  <COMPND>
    UNNAMED

>  <MASTER>
        0    0    0    0    0    0    0    0  109    0  109    0

>  <Name>
FB1.pdb

>  <RI>
0

>  <Rbt.Current_Directory>
/home/fc/tossine/F10/p3/2_clust03

>  <Rbt.Executable>
rbdock/0.1.0

>  <Rbt.Library>
librxdock.so/0.1.0

>  <Rbt.Parameter_File>
/cluster/rxdock/data/scripts/dock.prm

>  <Rbt.Receptor>
rx_1.prm

>  <SCORE>
44.4123

>  <SCORE.INTER>
6.3444

>  <SCORE.INTER.CONST>
1

>  <SCORE.INTER.POLAR>
-3.18463

>  <SCORE.INTER.REPUL>
0.907649

>  <SCORE.INTER.ROT>
32

>  <SCORE.INTER.VDW>
-24.7661

>  <SCORE.INTER.norm>
0.126888

>  <SCORE.INTRA>
38.0679

>  <SCORE.INTRA.DIHEDRAL>
49.3343

>  <SCORE.INTRA.DIHEDRAL.0>
47.3121

>  <SCORE.INTRA.POLAR>
1.08949

>  <SCORE.INTRA.POLAR.0>
-1.47808

>  <SCORE.INTRA.REPUL>
0

>  <SCORE.INTRA.REPUL.0>
0

>  <SCORE.INTRA.VDW>
9.69649

>  <SCORE.INTRA.VDW.0>
-2.78316

>  <SCORE.INTRA.norm>
0.761358

>  <SCORE.RESTR>
0

>  <SCORE.RESTR.CAVITY>
0

>  <SCORE.RESTR.norm>
0

>  <SCORE.SYSTEM>
0

>  <SCORE.SYSTEM.CONST>
0

>  <SCORE.SYSTEM.DIHEDRAL>
0

>  <SCORE.SYSTEM.norm>
0

>  <SCORE.heavy>
50

>  <SCORE.norm>
0.888247

$$$$
