FB1.pdb
  RxDock  10092023023D
librxdock.so/0.1.0
 59 58  0  0  0  0  0  0  0  0999 V2000
    0.8884   -0.8783    0.1333 C   0  0  0  0  0  0
    0.8361   -2.3436   -0.2929 C   0  0  0  0  0  0
    1.2074   -3.2865    0.8636 C   0  0  0  0  0  0
    0.3577   -3.0632    2.1395 C   0  0  0  0  0  0
    1.0487   -3.4978    3.4789 C   0  0  0  0  0  0
    2.4824   -2.9193    3.4956 C   0  0  0  0  0  0
    0.2457   -3.0617    4.7762 C   0  0  0  0  0  0
    0.9149   -3.4002    6.1918 C   0  0  0  0  0  0
    0.4545   -2.7970    7.5891 C   0  0  0  0  0  0
   -1.1659   -2.8796    7.8868 C   0  0  0  0  0  0
   -1.3854   -2.8171    9.3975 C   0  0  0  0  0  0
   -2.0697   -1.7784    7.1690 C   0  0  0  0  0  0
   -3.6453   -1.5620    7.4678 C   0  0  0  0  0  0
   -4.6280   -2.7599    7.7036 C   0  0  0  0  0  0
   -5.8575   -2.5461    8.6994 C   0  0  0  0  0  0
   -6.8050   -3.7050    9.2032 C   0  0  0  0  0  0
   -7.4118   -4.6974    8.1763 C   0  0  0  0  0  0
   -7.7091   -6.1569    8.6964 C   0  0  0  0  0  0
   -8.5150   -7.0621    7.7564 C   0  0  0  0  0  0
   -8.6504   -8.5681    8.1195 C   0  0  0  0  0  0
   -7.4067   -9.5048    8.0876 C   0  0  0  0  0  0
   -7.6857  -11.0012    8.0728 C   0  0  0  0  0  0
   -6.4929   -9.1279    6.9924 N   0  0  0  0  0  0
   -9.0901   -8.5748    9.5017 O   0  0  0  0  0  0
   -6.4557   -6.7907    8.9741 O   0  0  0  0  0  0
   -3.6892   -0.7959    8.6834 O   0  0  0  0  0  0
    0.7958   -4.8385    6.3640 O   0  0  0  0  0  0
    1.6957   -5.6151    5.7064 C   0  0  0  0  0  0
    2.6478   -5.2223    5.0594 O   0  0  0  0  0  0
    1.3799   -7.0570    5.9939 C   0  0  0  0  0  0
    1.3979   -7.3769    7.4971 C   0  0  0  0  0  0
    2.5583   -6.6923    8.2308 C   0  0  0  0  0  0
    2.8695   -7.3934    9.5327 C   0  0  0  0  0  0
    2.1152   -7.3948   10.4995 O   0  0  0  0  0  0
    4.0552   -8.0202    9.5319 O   0  0  0  0  0  0
    0.0572   -6.8753    8.0512 C   0  0  0  0  0  0
   -0.9710   -6.8544    7.3919 O   0  0  0  0  0  0
    0.1162   -6.4135    9.3079 O   0  0  0  0  0  0
   -0.1818   -1.6441    4.6900 O   0  0  0  0  0  0
    0.7291   -0.7078    4.2299 C   0  0  0  0  0  0
    0.7367   -0.2412    3.0983 O   0  0  0  0  0  0
    1.7476   -0.3068    5.3052 C   0  0  0  0  0  0
    3.2478   -0.4060    4.8878 C   0  0  0  0  0  0
    3.6557    0.1603    3.5155 C   0  0  0  0  0  0
    3.3589    1.6253    3.3737 C   0  0  0  0  0  0
    3.6457    2.4934    4.1866 O   0  0  0  0  0  0
    2.7410    1.9142    2.2183 O   0  0  0  0  0  0
    4.2351    0.1527    5.9200 C   0  0  0  0  0  0
    4.3031    1.3340    6.1965 O   0  0  0  0  0  0
    4.9590   -0.7699    6.5878 O   0  0  0  0  0  0
   -5.7845   -9.8524    6.8841 H   0  0  0  0  0  0
   -5.9744   -8.2923    7.2726 H   0  0  0  0  0  0
   -9.9769   -8.1571    9.4805 H   0  0  0  0  0  0
   -6.0220   -6.3029    9.6983 H   0  0  0  0  0  0
   -4.5389   -0.3251    8.7117 H   0  0  0  0  0  0
    4.7176   -7.6577    8.9127 H   0  0  0  0  0  0
   -0.7498   -6.1025    9.6715 H   0  0  0  0  0  0
    2.5953    2.8838    2.2119 H   0  0  0  0  0  0
    5.6108   -0.4084    7.2287 H   0  0  0  0  0  0
  1  2  1  0  0  0
  2  3  1  0  0  0
  3  4  1  0  0  0
  4  5  1  0  0  0
  5  6  1  0  0  0
  5  7  1  0  0  0
  7  8  1  0  0  0
  7 39  1  0  0  0
  8  9  1  0  0  0
  8 27  1  0  0  0
  9 10  1  0  0  0
 10 11  1  0  0  0
 10 12  1  0  0  0
 12 13  1  0  0  0
 13 14  1  0  0  0
 13 26  1  0  0  0
 14 15  1  0  0  0
 15 16  1  0  0  0
 16 17  1  0  0  0
 17 18  1  0  0  0
 18 19  1  0  0  0
 18 25  1  0  0  0
 19 20  1  0  0  0
 20 21  1  0  0  0
 20 24  1  0  0  0
 21 22  1  0  0  0
 21 23  1  0  0  0
 23 51  1  0  0  0
 23 52  1  0  0  0
 24 53  1  0  0  0
 25 54  1  0  0  0
 26 55  1  0  0  0
 27 28  1  0  0  0
 28 29  2  0  0  0
 28 30  1  0  0  0
 30 31  1  0  0  0
 31 32  1  0  0  0
 31 36  1  0  0  0
 32 33  1  0  0  0
 33 34  2  0  0  0
 33 35  1  0  0  0
 35 56  1  0  0  0
 36 37  2  0  0  0
 36 38  1  0  0  0
 38 57  1  0  0  0
 39 40  1  0  0  0
 40 41  2  0  0  0
 40 42  1  0  0  0
 42 43  1  0  0  0
 43 44  1  0  0  0
 43 48  1  0  0  0
 44 45  1  0  0  0
 45 46  2  0  0  0
 45 47  1  0  0  0
 47 58  1  0  0  0
 48 49  2  0  0  0
 48 50  1  0  0  0
 50 59  1  0  0  0
M  END
>  <AUTHOR>
    GENERATED BY OPEN BABEL 2.4.1

>  <CHROM.1>
54.31018230,-154.47202108,47.79731876,-177.04374289,166.35933419,-43.95748695
49.17067480,79.40678465,157.15212648,-171.96825836,-39.30691833,147.76165623
156.37626822,-170.63858006,-48.72322151,150.38465636,170.30995615,170.83632706
63.86610043,-67.26419590,-163.50106244,64.53169348,-169.57198496,5.35230494
-57.67728900,-41.08327528,-158.83778045,30.89144784,-68.22745879,25.49106110
-179.11795265,101.61442322,128.01689861,45.58168569,59.66748584,-67.29036928
48.34065255,-179.59970266,178.19020911,-0.77090667,-3.83595506,6.35729410
0.71631482,0.03286936,-0.55740531

>  <COMPND>
    UNNAMED

>  <MASTER>
        0    0    0    0    0    0    0    0  109    0  109    0

>  <Name>
FB1.pdb

>  <RI>
0

>  <Rbt.Current_Directory>
/home/fc/tossine/F10/p3/2_clust03

>  <Rbt.Executable>
rbdock/0.1.0

>  <Rbt.Library>
librxdock.so/0.1.0

>  <Rbt.Parameter_File>
/cluster/rxdock/data/scripts/dock.prm

>  <Rbt.Receptor>
rx_0.prm

>  <SCORE>
21.0789

>  <SCORE.INTER>
0.68212

>  <SCORE.INTER.CONST>
1

>  <SCORE.INTER.POLAR>
-2.96199

>  <SCORE.INTER.REPUL>
0.155212

>  <SCORE.INTER.ROT>
32

>  <SCORE.INTER.VDW>
-27.4232

>  <SCORE.INTER.norm>
0.0136424

>  <SCORE.INTRA>
20.0596

>  <SCORE.INTRA.DIHEDRAL>
22.7885

>  <SCORE.INTRA.DIHEDRAL.0>
47.3121

>  <SCORE.INTRA.POLAR>
1.18301

>  <SCORE.INTRA.POLAR.0>
-1.47808

>  <SCORE.INTRA.REPUL>
0

>  <SCORE.INTRA.REPUL.0>
0

>  <SCORE.INTRA.VDW>
4.64305

>  <SCORE.INTRA.VDW.0>
-2.78316

>  <SCORE.INTRA.norm>
0.401191

>  <SCORE.RESTR>
0.337244

>  <SCORE.RESTR.CAVITY>
0.337244

>  <SCORE.RESTR.norm>
0.00674488

>  <SCORE.SYSTEM>
0

>  <SCORE.SYSTEM.CONST>
0

>  <SCORE.SYSTEM.DIHEDRAL>
0

>  <SCORE.SYSTEM.norm>
0

>  <SCORE.heavy>
50

>  <SCORE.norm>
0.421578

$$$$
