FB1.pdb
  RxDock  10102001023D
librxdock.so/0.1.0
 59 58  0  0  0  0  0  0  0  0999 V2000
   -0.1809   -8.1067   11.8664 C   0  0  0  0  0  0
    0.3910   -7.9212   10.4629 C   0  0  0  0  0  0
    0.9510   -6.5038   10.2590 C   0  0  0  0  0  0
    1.3427   -6.1997    8.7914 C   0  0  0  0  0  0
    2.0281   -4.8071    8.5646 C   0  0  0  0  0  0
    3.3427   -4.7748    9.3780 C   0  0  0  0  0  0
    2.2981   -4.4756    7.0365 C   0  0  0  0  0  0
    1.0793   -3.8555    6.2022 C   0  0  0  0  0  0
    0.4813   -4.4691    4.8627 C   0  0  0  0  0  0
    0.1256   -6.0786    4.9285 C   0  0  0  0  0  0
    1.4172   -6.8504    5.1934 C   0  0  0  0  0  0
   -0.9832   -6.5108    5.9908 C   0  0  0  0  0  0
   -2.5752   -6.4866    5.7019 C   0  0  0  0  0  0
   -3.5980   -7.3032    6.5640 C   0  0  0  0  0  0
   -3.5366   -8.8975    6.5036 C   0  0  0  0  0  0
   -4.6205   -9.8533    7.1409 C   0  0  0  0  0  0
   -6.1071   -9.7119    6.7197 C   0  0  0  0  0  0
   -6.9921   -8.7252    7.5754 C   0  0  0  0  0  0
   -6.7296   -7.2277    7.3728 C   0  0  0  0  0  0
   -7.4969   -6.2165    8.2711 C   0  0  0  0  0  0
   -7.1714   -6.1015    9.7897 C   0  0  0  0  0  0
   -7.9604   -7.0098   10.7223 C   0  0  0  0  0  0
   -5.7214   -6.2328   10.0278 N   0  0  0  0  0  0
   -7.1738   -4.9150    7.7183 O   0  0  0  0  0  0
   -8.3664   -8.9908    7.2747 O   0  0  0  0  0  0
   -2.9598   -5.1112    5.8662 O   0  0  0  0  0  0
   -0.0529   -3.8066    7.1123 O   0  0  0  0  0  0
   -0.6223   -2.5915    7.3238 C   0  0  0  0  0  0
   -0.0335   -1.5407    7.4923 O   0  0  0  0  0  0
   -2.1147   -2.7397    7.2142 C   0  0  0  0  0  0
   -2.8480   -2.2862    8.4866 C   0  0  0  0  0  0
   -2.6212   -0.8015    8.7993 C   0  0  0  0  0  0
   -3.2901   -0.4092   10.0962 C   0  0  0  0  0  0
   -4.0730    0.5290   10.1988 O   0  0  0  0  0  0
   -2.9467   -1.1892   11.1318 O   0  0  0  0  0  0
   -4.3387   -2.5472    8.2302 C   0  0  0  0  0  0
   -4.9097   -3.5645    8.5927 O   0  0  0  0  0  0
   -4.9559   -1.5859    7.5295 O   0  0  0  0  0  0
    3.5418   -3.6846    6.8718 O   0  0  0  0  0  0
    3.5553   -2.3758    7.3248 C   0  0  0  0  0  0
    4.1736   -1.9850    8.3063 O   0  0  0  0  0  0
    2.6998   -1.4474    6.4527 C   0  0  0  0  0  0
    3.0734   -1.4060    4.9384 C   0  0  0  0  0  0
    1.9958   -1.8110    3.9162 C   0  0  0  0  0  0
    0.9823   -0.7301    3.6730 C   0  0  0  0  0  0
    0.8287   -0.1189    2.6245 O   0  0  0  0  0  0
    0.2138   -0.4960    4.7476 O   0  0  0  0  0  0
    3.6693   -0.0744    4.4649 C   0  0  0  0  0  0
    4.5878   -0.0069    3.6721 O   0  0  0  0  0  0
    3.0356    1.0329    4.9047 O   0  0  0  0  0  0
   -5.5393   -6.1618   11.0279 H   0  0  0  0  0  0
   -5.2483   -5.4253    9.6160 H   0  0  0  0  0  0
   -6.2257   -4.7849    7.9315 H   0  0  0  0  0  0
   -8.5644   -9.9075    7.5409 H   0  0  0  0  0  0
   -2.4095   -4.5723    5.2736 H   0  0  0  0  0  0
   -3.2307   -0.8665   12.0086 H   0  0  0  0  0  0
   -5.8669   -1.8218    7.2242 H   0  0  0  0  0  0
   -0.3337    0.2894    4.5363 H   0  0  0  0  0  0
    3.4006    1.8841    4.5753 H   0  0  0  0  0  0
  1  2  1  0  0  0
  2  3  1  0  0  0
  3  4  1  0  0  0
  4  5  1  0  0  0
  5  6  1  0  0  0
  5  7  1  0  0  0
  7  8  1  0  0  0
  7 39  1  0  0  0
  8  9  1  0  0  0
  8 27  1  0  0  0
  9 10  1  0  0  0
 10 11  1  0  0  0
 10 12  1  0  0  0
 12 13  1  0  0  0
 13 14  1  0  0  0
 13 26  1  0  0  0
 14 15  1  0  0  0
 15 16  1  0  0  0
 16 17  1  0  0  0
 17 18  1  0  0  0
 18 19  1  0  0  0
 18 25  1  0  0  0
 19 20  1  0  0  0
 20 21  1  0  0  0
 20 24  1  0  0  0
 21 22  1  0  0  0
 21 23  1  0  0  0
 23 51  1  0  0  0
 23 52  1  0  0  0
 24 53  1  0  0  0
 25 54  1  0  0  0
 26 55  1  0  0  0
 27 28  1  0  0  0
 28 29  2  0  0  0
 28 30  1  0  0  0
 30 31  1  0  0  0
 31 32  1  0  0  0
 31 36  1  0  0  0
 32 33  1  0  0  0
 33 34  2  0  0  0
 33 35  1  0  0  0
 35 56  1  0  0  0
 36 37  2  0  0  0
 36 38  1  0  0  0
 38 57  1  0  0  0
 39 40  1  0  0  0
 40 41  2  0  0  0
 40 42  1  0  0  0
 42 43  1  0  0  0
 43 44  1  0  0  0
 43 48  1  0  0  0
 44 45  1  0  0  0
 45 46  2  0  0  0
 45 47  1  0  0  0
 47 58  1  0  0  0
 48 49  2  0  0  0
 48 50  1  0  0  0
 50 59  1  0  0  0
M  END
>  <AUTHOR>
    GENERATED BY OPEN BABEL 2.4.1

>  <CHROM.1>
-171.15560239,-175.14750307,61.42453934,83.37830030,-123.83684159,-69.46855641
49.76570817,122.30147017,-61.96499203,85.62137313,160.90552696,-66.16824581
55.58116291,-170.72841444,56.71114375,-90.36509140,72.79237117,-175.35275689
62.14514703,69.79330660,-89.66255025,-69.42727627,-179.51603321,-42.47931505
122.54776313,61.69276046,-176.76384563,95.18953774,-126.62575351,169.33031762
169.60007399,108.88010909,-56.88305936,120.57325409,78.00755581,140.57079951
113.45769185,173.11130373,-178.00938405,-1.42234554,-4.14375007,7.30921655
-2.57740381,0.26398135,-0.06091427

>  <COMPND>
    UNNAMED

>  <MASTER>
        0    0    0    0    0    0    0    0  109    0  109    0

>  <Name>
FB1.pdb

>  <RI>
0

>  <Rbt.Current_Directory>
/home/fc/tossine/F10/p3/2_clust03

>  <Rbt.Executable>
rbdock/0.1.0

>  <Rbt.Library>
librxdock.so/0.1.0

>  <Rbt.Parameter_File>
/cluster/rxdock/data/scripts/dock.prm

>  <Rbt.Receptor>
rx_2.prm

>  <SCORE>
12.2008

>  <SCORE.INTER>
2.77454

>  <SCORE.INTER.CONST>
1

>  <SCORE.INTER.POLAR>
-1.16965

>  <SCORE.INTER.REPUL>
0.0603604

>  <SCORE.INTER.ROT>
32

>  <SCORE.INTER.VDW>
-30.9504

>  <SCORE.INTER.norm>
0.0554909

>  <SCORE.INTRA>
9.41675

>  <SCORE.INTRA.DIHEDRAL>
30.7203

>  <SCORE.INTRA.DIHEDRAL.0>
47.3121

>  <SCORE.INTRA.POLAR>
-0.316785

>  <SCORE.INTRA.POLAR.0>
-1.47808

>  <SCORE.INTRA.REPUL>
0

>  <SCORE.INTRA.REPUL.0>
0

>  <SCORE.INTRA.VDW>
-4.8663

>  <SCORE.INTRA.VDW.0>
-2.78316

>  <SCORE.INTRA.norm>
0.188335

>  <SCORE.RESTR>
0.00952598

>  <SCORE.RESTR.CAVITY>
0.00952598

>  <SCORE.RESTR.norm>
0.00019052

>  <SCORE.SYSTEM>
0

>  <SCORE.SYSTEM.CONST>
0

>  <SCORE.SYSTEM.DIHEDRAL>
0

>  <SCORE.SYSTEM.norm>
0

>  <SCORE.heavy>
50

>  <SCORE.norm>
0.244016

$$$$
