FB1.pdb
  RxDock  10102001473D
librxdock.so/0.1.0
 59 58  0  0  0  0  0  0  0  0999 V2000
    3.8281   -2.5430    5.6342 C   0  0  0  0  0  0
    3.3414   -3.1934    6.9271 C   0  0  0  0  0  0
    2.6908   -4.5619    6.6662 C   0  0  0  0  0  0
    1.9044   -5.1137    7.8814 C   0  0  0  0  0  0
    1.3159   -6.5550    7.6896 C   0  0  0  0  0  0
    0.3918   -6.8657    8.8896 C   0  0  0  0  0  0
    0.5457   -6.7467    6.3156 C   0  0  0  0  0  0
   -0.3651   -8.0566    6.1709 C   0  0  0  0  0  0
    0.1641   -9.5534    6.2594 C   0  0  0  0  0  0
    1.0891   -9.8911    7.5829 C   0  0  0  0  0  0
    1.1500  -11.4077    7.7579 C   0  0  0  0  0  0
    2.5681   -9.2934    7.5782 C   0  0  0  0  0  0
    3.4776   -9.1110    8.9041 C   0  0  0  0  0  0
    3.8958  -10.3203    9.8090 C   0  0  0  0  0  0
    4.5340  -11.6052    9.1084 C   0  0  0  0  0  0
    5.9841  -11.6486    8.4839 C   0  0  0  0  0  0
    6.3743  -10.6250    7.3850 C   0  0  0  0  0  0
    7.8693  -10.6649    6.8825 C   0  0  0  0  0  0
    8.9452  -10.3330    7.9239 C   0  0  0  0  0  0
    8.6475   -9.2124    8.9602 C   0  0  0  0  0  0
    8.0353   -9.5613   10.3491 C   0  0  0  0  0  0
    6.8358   -8.7332   10.7881 C   0  0  0  0  0  0
    7.7445  -11.0042   10.4477 N   0  0  0  0  0  0
    9.9433   -8.6317    9.2562 O   0  0  0  0  0  0
    8.1263  -11.9747    6.3646 O   0  0  0  0  0  0
    4.7142   -8.5518    8.4301 O   0  0  0  0  0  0
   -1.3721   -7.9687    7.2152 O   0  0  0  0  0  0
   -2.4662   -7.2068    6.9546 C   0  0  0  0  0  0
   -2.8481   -6.8480    5.8569 O   0  0  0  0  0  0
   -3.1935   -6.9603    8.2475 C   0  0  0  0  0  0
   -4.6496   -7.4507    8.2085 C   0  0  0  0  0  0
   -5.3938   -6.9859    6.9501 C   0  0  0  0  0  0
   -5.3681   -5.4801    6.8266 C   0  0  0  0  0  0
   -4.6179   -4.8744    6.0689 O   0  0  0  0  0  0
   -6.2497   -4.8631    7.6272 O   0  0  0  0  0  0
   -4.5795   -8.9837    8.2411 C   0  0  0  0  0  0
   -3.6081   -9.6152    7.8539 O   0  0  0  0  0  0
   -5.6950   -9.5790    8.6850 O   0  0  0  0  0  0
   -0.1901   -5.5155    5.9379 O   0  0  0  0  0  0
   -0.7600   -5.4489    4.6774 C   0  0  0  0  0  0
   -1.1341   -6.4182    4.0302 O   0  0  0  0  0  0
   -0.8775   -4.0072    4.1653 C   0  0  0  0  0  0
    0.4686   -3.2368    3.9957 C   0  0  0  0  0  0
    1.5224   -3.8237    3.0389 C   0  0  0  0  0  0
    2.0480   -2.8171    2.0566 C   0  0  0  0  0  0
    1.5271   -2.5218    0.9898 O   0  0  0  0  0  0
    3.1788   -2.2307    2.4782 O   0  0  0  0  0  0
    0.3136   -1.7522    3.6432 C   0  0  0  0  0  0
   -0.6047   -1.3255    2.9713 O   0  0  0  0  0  0
    1.2096   -0.9233    4.2188 O   0  0  0  0  0  0
    7.5323  -11.2367   11.4170 H   0  0  0  0  0  0
    8.5978  -11.5249   10.2327 H   0  0  0  0  0  0
   10.1466   -8.0721    8.4772 H   0  0  0  0  0  0
    9.0135  -11.9732    5.9602 H   0  0  0  0  0  0
    5.0068   -7.8824    9.0710 H   0  0  0  0  0  0
   -6.3190   -3.8969    7.5043 H   0  0  0  0  0  0
   -6.4086   -8.9546    8.9670 H   0  0  0  0  0  0
    3.3997   -1.5391    1.8191 H   0  0  0  0  0  0
    1.0966    0.0297    4.0064 H   0  0  0  0  0  0
  1  2  1  0  0  0
  2  3  1  0  0  0
  3  4  1  0  0  0
  4  5  1  0  0  0
  5  6  1  0  0  0
  5  7  1  0  0  0
  7  8  1  0  0  0
  7 39  1  0  0  0
  8  9  1  0  0  0
  8 27  1  0  0  0
  9 10  1  0  0  0
 10 11  1  0  0  0
 10 12  1  0  0  0
 12 13  1  0  0  0
 13 14  1  0  0  0
 13 26  1  0  0  0
 14 15  1  0  0  0
 15 16  1  0  0  0
 16 17  1  0  0  0
 17 18  1  0  0  0
 18 19  1  0  0  0
 18 25  1  0  0  0
 19 20  1  0  0  0
 20 21  1  0  0  0
 20 24  1  0  0  0
 21 22  1  0  0  0
 21 23  1  0  0  0
 23 51  1  0  0  0
 23 52  1  0  0  0
 24 53  1  0  0  0
 25 54  1  0  0  0
 26 55  1  0  0  0
 27 28  1  0  0  0
 28 29  2  0  0  0
 28 30  1  0  0  0
 30 31  1  0  0  0
 31 32  1  0  0  0
 31 36  1  0  0  0
 32 33  1  0  0  0
 33 34  2  0  0  0
 33 35  1  0  0  0
 35 56  1  0  0  0
 36 37  2  0  0  0
 36 38  1  0  0  0
 38 57  1  0  0  0
 39 40  1  0  0  0
 40 41  2  0  0  0
 40 42  1  0  0  0
 42 43  1  0  0  0
 43 44  1  0  0  0
 43 48  1  0  0  0
 44 45  1  0  0  0
 45 46  2  0  0  0
 45 47  1  0  0  0
 47 58  1  0  0  0
 48 49  2  0  0  0
 48 50  1  0  0  0
 50 59  1  0  0  0
M  END
>  <AUTHOR>
    GENERATED BY OPEN BABEL 2.4.1

>  <CHROM.1>
-167.03061199,-175.67851133,-171.51925499,-166.51328535,-60.71212178,171.05359685
50.82842817,82.58710597,162.58192868,160.90153240,60.50421486,49.77733600
140.36461315,71.66140823,-56.51150260,175.83190360,-63.34466141,-38.00835828
173.56810620,93.05191254,-131.28140565,76.30178261,168.28262226,18.42086325
-122.24824927,-48.19663103,-56.89222265,-24.95306938,101.89563067,-174.10574626
-2.18486406,27.47038759,61.49724818,59.20543304,129.84162467,-32.43313020
-84.67514638,-174.96397240,-178.76680694,1.42962782,-7.03353980,6.78016300
-2.60234363,-0.03223421,2.54294086

>  <COMPND>
    UNNAMED

>  <MASTER>
        0    0    0    0    0    0    0    0  109    0  109    0

>  <Name>
FB1.pdb

>  <RI>
0

>  <Rbt.Current_Directory>
/home/fc/tossine/F10/p3/2_clust03

>  <Rbt.Executable>
rbdock/0.1.0

>  <Rbt.Library>
librxdock.so/0.1.0

>  <Rbt.Parameter_File>
/cluster/rxdock/data/scripts/dock.prm

>  <Rbt.Receptor>
rx_3.prm

>  <SCORE>
5.87427

>  <SCORE.INTER>
0.793747

>  <SCORE.INTER.CONST>
1

>  <SCORE.INTER.POLAR>
-3.29957

>  <SCORE.INTER.REPUL>
0.33801

>  <SCORE.INTER.ROT>
32

>  <SCORE.INTER.VDW>
-27.0778

>  <SCORE.INTER.norm>
0.0158749

>  <SCORE.INTRA>
4.39487

>  <SCORE.INTRA.DIHEDRAL>
2.53149

>  <SCORE.INTRA.DIHEDRAL.0>
47.3121

>  <SCORE.INTRA.POLAR>
1.47808

>  <SCORE.INTRA.POLAR.0>
-1.47808

>  <SCORE.INTRA.REPUL>
0

>  <SCORE.INTRA.REPUL.0>
0

>  <SCORE.INTRA.VDW>
-1.89634

>  <SCORE.INTRA.VDW.0>
-2.78316

>  <SCORE.INTRA.norm>
0.0878974

>  <SCORE.RESTR>
0.685648

>  <SCORE.RESTR.CAVITY>
0.685648

>  <SCORE.RESTR.norm>
0.013713

>  <SCORE.SYSTEM>
0

>  <SCORE.SYSTEM.CONST>
0

>  <SCORE.SYSTEM.DIHEDRAL>
0

>  <SCORE.SYSTEM.norm>
0

>  <SCORE.heavy>
50

>  <SCORE.norm>
0.117485

$$$$
