FB1.pdb
  RxDock  10102001433D
librxdock.so/0.1.0
 59 58  0  0  0  0  0  0  0  0999 V2000
   -7.2276  -10.7851    6.9521 C   0  0  0  0  0  0
   -5.9115  -10.4451    6.2567 C   0  0  0  0  0  0
   -5.0811   -9.4386    7.0701 C   0  0  0  0  0  0
   -5.6810   -8.0104    7.0828 C   0  0  0  0  0  0
   -4.9545   -6.9960    8.0333 C   0  0  0  0  0  0
   -4.9710   -7.5763    9.4664 C   0  0  0  0  0  0
   -3.4742   -6.6505    7.5781 C   0  0  0  0  0  0
   -2.4441   -7.8726    7.4703 C   0  0  0  0  0  0
   -1.4380   -8.1176    6.2637 C   0  0  0  0  0  0
   -0.4717   -6.8347    5.8872 C   0  0  0  0  0  0
   -0.9384   -6.2505    4.5549 C   0  0  0  0  0  0
   -0.3858   -5.6748    6.9791 C   0  0  0  0  0  0
    0.7099   -4.4844    6.9543 C   0  0  0  0  0  0
    2.2311   -4.7367    7.2344 C   0  0  0  0  0  0
    3.2935   -3.7123    6.6253 C   0  0  0  0  0  0
    3.1287   -2.1417    6.6502 C   0  0  0  0  0  0
    3.1224   -1.3522    5.3145 C   0  0  0  0  0  0
    1.9616   -1.6901    4.3007 C   0  0  0  0  0  0
    0.6574   -0.9017    4.4739 C   0  0  0  0  0  0
   -0.1281   -1.0595    5.8067 C   0  0  0  0  0  0
    0.0123    0.0011    6.9384 C   0  0  0  0  0  0
    1.3970    0.6020    7.1358 C   0  0  0  0  0  0
   -1.0062    1.0589    6.7967 N   0  0  0  0  0  0
   -1.5247   -1.0113    5.4182 O   0  0  0  0  0  0
    2.4545   -1.4683    2.9750 O   0  0  0  0  0  0
    0.6565   -3.9607    5.6166 O   0  0  0  0  0  0
   -1.5875   -7.7864    8.6413 O   0  0  0  0  0  0
   -1.6359   -8.8224    9.5187 C   0  0  0  0  0  0
   -2.3936   -9.7726    9.4687 O   0  0  0  0  0  0
   -0.5225   -8.6545   10.5154 C   0  0  0  0  0  0
    0.8440   -9.0737    9.9503 C   0  0  0  0  0  0
    1.3008   -8.1794    8.7906 C   0  0  0  0  0  0
    2.7907   -7.9334    8.8462 C   0  0  0  0  0  0
    3.2908   -6.8828    9.2333 O   0  0  0  0  0  0
    3.5208   -8.9793    8.4314 O   0  0  0  0  0  0
    1.8343   -8.9664   11.1181 C   0  0  0  0  0  0
    3.0425   -8.8755   10.9617 O   0  0  0  0  0  0
    1.2681   -9.0304   12.3310 O   0  0  0  0  0  0
   -3.4722   -5.8142    6.3531 O   0  0  0  0  0  0
   -3.5514   -4.4387    6.4940 C   0  0  0  0  0  0
   -3.0893   -3.6297    5.7001 O   0  0  0  0  0  0
   -4.2930   -4.0245    7.7718 C   0  0  0  0  0  0
   -4.1145   -2.5366    8.2064 C   0  0  0  0  0  0
   -5.0477   -1.9856    9.3000 C   0  0  0  0  0  0
   -6.2601   -2.8427    9.5231 C   0  0  0  0  0  0
   -6.5595   -3.3960   10.5723 O   0  0  0  0  0  0
   -7.0299   -2.9377    8.4283 O   0  0  0  0  0  0
   -2.6819   -2.1542    8.5985 C   0  0  0  0  0  0
   -1.8724   -2.9614    9.0106 O   0  0  0  0  0  0
   -2.3372   -0.8723    8.3554 O   0  0  0  0  0  0
   -0.9416    1.6935    7.5914 H   0  0  0  0  0  0
   -1.9325    0.6329    6.8743 H   0  0  0  0  0  0
   -2.0179   -1.1710    6.2504 H   0  0  0  0  0  0
    1.7605   -1.7343    2.3440 H   0  0  0  0  0  0
    1.0046   -4.6391    5.0140 H   0  0  0  0  0  0
    3.0071   -9.7610    8.1512 H   0  0  0  0  0  0
    0.4261   -9.5488   12.3637 H   0  0  0  0  0  0
   -6.5797   -2.4270    7.7227 H   0  0  0  0  0  0
   -1.5303   -0.5591    8.8212 H   0  0  0  0  0  0
  1  2  1  0  0  0
  2  3  1  0  0  0
  3  4  1  0  0  0
  4  5  1  0  0  0
  5  6  1  0  0  0
  5  7  1  0  0  0
  7  8  1  0  0  0
  7 39  1  0  0  0
  8  9  1  0  0  0
  8 27  1  0  0  0
  9 10  1  0  0  0
 10 11  1  0  0  0
 10 12  1  0  0  0
 12 13  1  0  0  0
 13 14  1  0  0  0
 13 26  1  0  0  0
 14 15  1  0  0  0
 15 16  1  0  0  0
 16 17  1  0  0  0
 17 18  1  0  0  0
 18 19  1  0  0  0
 18 25  1  0  0  0
 19 20  1  0  0  0
 20 21  1  0  0  0
 20 24  1  0  0  0
 21 22  1  0  0  0
 21 23  1  0  0  0
 23 51  1  0  0  0
 23 52  1  0  0  0
 24 53  1  0  0  0
 25 54  1  0  0  0
 26 55  1  0  0  0
 27 28  1  0  0  0
 28 29  2  0  0  0
 28 30  1  0  0  0
 30 31  1  0  0  0
 31 32  1  0  0  0
 31 36  1  0  0  0
 32 33  1  0  0  0
 33 34  2  0  0  0
 33 35  1  0  0  0
 35 56  1  0  0  0
 36 37  2  0  0  0
 36 38  1  0  0  0
 38 57  1  0  0  0
 39 40  1  0  0  0
 40 41  2  0  0  0
 40 42  1  0  0  0
 42 43  1  0  0  0
 43 44  1  0  0  0
 43 48  1  0  0  0
 44 45  1  0  0  0
 45 46  2  0  0  0
 45 47  1  0  0  0
 47 58  1  0  0  0
 48 49  2  0  0  0
 48 50  1  0  0  0
 50 59  1  0  0  0
M  END
>  <AUTHOR>
    GENERATED BY OPEN BABEL 2.4.1

>  <CHROM.1>
-70.82223937,173.33032150,-57.16685835,-59.32273643,134.80205521,87.34033044
53.04124017,117.00908677,-108.67038819,167.33341167,-69.63867575,155.11772243
-68.21203600,43.78162153,-121.41122425,61.88684465,87.83608823,-62.26771942
176.17616049,98.68527052,-37.16988831,176.32824468,175.26213991,-5.45776582
-77.95738248,64.81438022,142.16819388,-159.79074882,-103.60267530,-0.19072972
28.03538038,151.90403008,164.73250328,167.75085514,-16.57450428,-25.57558778
119.46502582,1.66447511,163.75088363,-1.27992978,-5.17283539,7.63382948,1.99466681
-0.04048524,2.81221034

>  <COMPND>
    UNNAMED

>  <MASTER>
        0    0    0    0    0    0    0    0  109    0  109    0

>  <Name>
FB1.pdb

>  <RI>
0

>  <Rbt.Current_Directory>
/home/fc/tossine/F10/p3/2_clust03

>  <Rbt.Executable>
rbdock/0.1.0

>  <Rbt.Library>
librxdock.so/0.1.0

>  <Rbt.Parameter_File>
/cluster/rxdock/data/scripts/dock.prm

>  <Rbt.Receptor>
rx_3.prm

>  <SCORE>
29.341

>  <SCORE.INTER>
5.50072

>  <SCORE.INTER.CONST>
1

>  <SCORE.INTER.POLAR>
-1.69698

>  <SCORE.INTER.REPUL>
0.335128

>  <SCORE.INTER.ROT>
32

>  <SCORE.INTER.VDW>
-27.8052

>  <SCORE.INTER.norm>
0.110014

>  <SCORE.INTRA>
23.8403

>  <SCORE.INTRA.DIHEDRAL>
25.2451

>  <SCORE.INTRA.DIHEDRAL.0>
47.3121

>  <SCORE.INTRA.POLAR>
0.248179

>  <SCORE.INTRA.POLAR.0>
-1.47808

>  <SCORE.INTRA.REPUL>
0

>  <SCORE.INTRA.REPUL.0>
0

>  <SCORE.INTRA.VDW>
10.3739

>  <SCORE.INTRA.VDW.0>
-2.78316

>  <SCORE.INTRA.norm>
0.476805

>  <SCORE.RESTR>
0

>  <SCORE.RESTR.CAVITY>
0

>  <SCORE.RESTR.norm>
0

>  <SCORE.SYSTEM>
0

>  <SCORE.SYSTEM.CONST>
0

>  <SCORE.SYSTEM.DIHEDRAL>
0

>  <SCORE.SYSTEM.norm>
0

>  <SCORE.heavy>
50

>  <SCORE.norm>
0.586819

$$$$
