FB1.pdb
  RxDock  10102001013D
librxdock.so/0.1.0
 59 58  0  0  0  0  0  0  0  0999 V2000
    1.0012   -2.3739   -0.5477 C   0  0  0  0  0  0
   -0.0611   -2.0098    0.4868 C   0  0  0  0  0  0
    0.1721   -0.6076    1.0731 C   0  0  0  0  0  0
    0.3480   -0.6032    2.6122 C   0  0  0  0  0  0
   -0.2322   -1.8612    3.3480 C   0  0  0  0  0  0
    0.6111   -3.0923    2.9431 C   0  0  0  0  0  0
   -0.2848   -1.7035    4.9261 C   0  0  0  0  0  0
   -0.4201   -3.0485    5.7856 C   0  0  0  0  0  0
   -0.0761   -3.1846    7.3320 C   0  0  0  0  0  0
    0.3407   -4.7028    7.8249 C   0  0  0  0  0  0
    0.8259   -5.4912    6.6095 C   0  0  0  0  0  0
    1.4286   -4.7904    8.9883 C   0  0  0  0  0  0
    1.7283   -6.1256    9.8520 C   0  0  0  0  0  0
    0.6667   -7.2639   10.0346 C   0  0  0  0  0  0
   -0.2216   -7.6802    8.7749 C   0  0  0  0  0  0
   -1.5481   -8.5327    8.8658 C   0  0  0  0  0  0
   -2.5781   -8.4701    7.7071 C   0  0  0  0  0  0
   -4.0913   -8.6902    8.0955 C   0  0  0  0  0  0
   -4.7396   -9.9869    7.5948 C   0  0  0  0  0  0
   -4.6127  -11.2625    8.4752 C   0  0  0  0  0  0
   -4.7852  -12.6774    7.8479 C   0  0  0  0  0  0
   -4.2636  -13.8498    8.6669 C   0  0  0  0  0  0
   -6.1838  -12.9027    7.4360 N   0  0  0  0  0  0
   -3.2491  -11.2343    8.9688 O   0  0  0  0  0  0
   -4.1906   -8.6540    9.5233 O   0  0  0  0  0  0
    2.8401   -6.7520    9.1902 O   0  0  0  0  0  0
   -1.8127   -3.4536    5.6898 O   0  0  0  0  0  0
   -2.7497   -2.4820    5.8427 C   0  0  0  0  0  0
   -3.6465   -2.2186    5.0644 O   0  0  0  0  0  0
   -2.5585   -1.8443    7.1911 C   0  0  0  0  0  0
   -3.0427   -2.7406    8.3420 C   0  0  0  0  0  0
   -3.8601   -1.9684    9.3856 C   0  0  0  0  0  0
   -2.9676   -1.1060   10.2477 C   0  0  0  0  0  0
   -1.9664   -0.5351    9.8290 O   0  0  0  0  0  0
   -3.3764   -1.0210   11.5223 O   0  0  0  0  0  0
   -3.9115   -3.8273    7.6936 C   0  0  0  0  0  0
   -3.4539   -4.8673    7.2448 O   0  0  0  0  0  0
   -5.2135   -3.5202    7.6143 O   0  0  0  0  0  0
    0.8189   -0.8418    5.4151 O   0  0  0  0  0  0
    2.1057   -1.1067    4.9769 C   0  0  0  0  0  0
    2.5392   -2.2232    4.7241 O   0  0  0  0  0  0
    2.9488    0.1676    4.8370 C   0  0  0  0  0  0
    3.7660    0.5811    6.1002 C   0  0  0  0  0  0
    4.9058   -0.3462    6.5598 C   0  0  0  0  0  0
    4.5825   -1.8024    6.3883 C   0  0  0  0  0  0
    4.0424   -2.5164    7.2220 O   0  0  0  0  0  0
    4.9367   -2.2679    5.1808 O   0  0  0  0  0  0
    4.3315    2.0061    6.0555 C   0  0  0  0  0  0
    5.4321    2.2660    5.6107 O   0  0  0  0  0  0
    3.4821    2.9791    6.4464 O   0  0  0  0  0  0
   -6.2695  -12.7287    6.4355 H   0  0  0  0  0  0
   -6.7728  -12.1934    7.8781 H   0  0  0  0  0  0
   -3.2383  -10.5033    9.6221 H   0  0  0  0  0  0
   -5.1352   -8.6776    9.7633 H   0  0  0  0  0  0
    3.4342   -6.0517    8.8722 H   0  0  0  0  0  0
   -4.0128   -1.7065   11.8023 H   0  0  0  0  0  0
   -5.6690   -3.8698    6.8086 H   0  0  0  0  0  0
    5.4472   -1.5545    4.7429 H   0  0  0  0  0  0
    3.6332    3.8587    6.0344 H   0  0  0  0  0  0
  1  2  1  0  0  0
  2  3  1  0  0  0
  3  4  1  0  0  0
  4  5  1  0  0  0
  5  6  1  0  0  0
  5  7  1  0  0  0
  7  8  1  0  0  0
  7 39  1  0  0  0
  8  9  1  0  0  0
  8 27  1  0  0  0
  9 10  1  0  0  0
 10 11  1  0  0  0
 10 12  1  0  0  0
 12 13  1  0  0  0
 13 14  1  0  0  0
 13 26  1  0  0  0
 14 15  1  0  0  0
 15 16  1  0  0  0
 16 17  1  0  0  0
 17 18  1  0  0  0
 18 19  1  0  0  0
 18 25  1  0  0  0
 19 20  1  0  0  0
 20 21  1  0  0  0
 20 24  1  0  0  0
 21 22  1  0  0  0
 21 23  1  0  0  0
 23 51  1  0  0  0
 23 52  1  0  0  0
 24 53  1  0  0  0
 25 54  1  0  0  0
 26 55  1  0  0  0
 27 28  1  0  0  0
 28 29  2  0  0  0
 28 30  1  0  0  0
 30 31  1  0  0  0
 31 32  1  0  0  0
 31 36  1  0  0  0
 32 33  1  0  0  0
 33 34  2  0  0  0
 33 35  1  0  0  0
 35 56  1  0  0  0
 36 37  2  0  0  0
 36 38  1  0  0  0
 38 57  1  0  0  0
 39 40  1  0  0  0
 40 41  2  0  0  0
 40 42  1  0  0  0
 42 43  1  0  0  0
 43 44  1  0  0  0
 43 48  1  0  0  0
 44 45  1  0  0  0
 45 46  2  0  0  0
 45 47  1  0  0  0
 47 58  1  0  0  0
 48 49  2  0  0  0
 48 50  1  0  0  0
 50 59  1  0  0  0
M  END
>  <AUTHOR>
    GENERATED BY OPEN BABEL 2.4.1

>  <CHROM.1>
-121.66956835,-20.92242677,67.24631867,-161.56790970,161.35390978,-49.16356399
-154.33893209,-44.62548547,22.14969843,165.16648224,-24.14484041,40.71318383
36.83018191,-164.34151143,158.81989670,-150.08587698,-111.36865206,87.49787933
173.02151856,-158.49592622,163.14191592,71.49604558,98.65785683,125.74640488
-74.29662747,-135.51801126,-74.50484593,86.68178743,35.51358867,17.31011212
145.56766613,-33.20988814,91.00112282,65.90943951,-37.37052329,-90.65893333
-90.01682493,8.00640120,-151.38342068,-0.53362148,-4.02639617,6.77008761
0.99667879,-0.18792057,-0.46867552

>  <COMPND>
    UNNAMED

>  <MASTER>
        0    0    0    0    0    0    0    0  109    0  109    0

>  <Name>
FB1.pdb

>  <RI>
0

>  <Rbt.Current_Directory>
/home/fc/tossine/F10/p3/2_clust03

>  <Rbt.Executable>
rbdock/0.1.0

>  <Rbt.Library>
librxdock.so/0.1.0

>  <Rbt.Parameter_File>
/cluster/rxdock/data/scripts/dock.prm

>  <Rbt.Receptor>
rx_2.prm

>  <SCORE>
83.4731

>  <SCORE.INTER>
30.8807

>  <SCORE.INTER.CONST>
1

>  <SCORE.INTER.POLAR>
-1.22275

>  <SCORE.INTER.REPUL>
0.156323

>  <SCORE.INTER.ROT>
32

>  <SCORE.INTER.VDW>
-3.14355

>  <SCORE.INTER.norm>
0.617614

>  <SCORE.INTRA>
52.5246

>  <SCORE.INTRA.DIHEDRAL>
59.6516

>  <SCORE.INTRA.DIHEDRAL.0>
47.3121

>  <SCORE.INTRA.POLAR>
1.112

>  <SCORE.INTRA.POLAR.0>
-1.47808

>  <SCORE.INTRA.REPUL>
0

>  <SCORE.INTRA.REPUL.0>
0

>  <SCORE.INTRA.VDW>
18.918

>  <SCORE.INTRA.VDW.0>
-2.78316

>  <SCORE.INTRA.norm>
1.05049

>  <SCORE.RESTR>
0.0677382

>  <SCORE.RESTR.CAVITY>
0.0677382

>  <SCORE.RESTR.norm>
0.00135476

>  <SCORE.SYSTEM>
0

>  <SCORE.SYSTEM.CONST>
0

>  <SCORE.SYSTEM.DIHEDRAL>
0

>  <SCORE.SYSTEM.norm>
0

>  <SCORE.heavy>
50

>  <SCORE.norm>
1.66946

$$$$
