FB1.pdb
  RxDock  10102001473D
librxdock.so/0.1.0
 59 58  0  0  0  0  0  0  0  0999 V2000
    3.3955   -2.2832    7.4909 C   0  0  0  0  0  0
    3.7387   -3.6707    8.0278 C   0  0  0  0  0  0
    2.4830   -4.5415    8.1992 C   0  0  0  0  0  0
    2.7863   -5.9649    8.7299 C   0  0  0  0  0  0
    1.5350   -6.7612    9.2402 C   0  0  0  0  0  0
    0.9084   -5.9787   10.4173 C   0  0  0  0  0  0
    0.4585   -7.0422    8.1087 C   0  0  0  0  0  0
   -0.3421   -5.7773    7.5386 C   0  0  0  0  0  0
   -0.6826   -5.5248    6.0061 C   0  0  0  0  0  0
   -1.7006   -4.2598    5.7150 C   0  0  0  0  0  0
   -3.1372   -4.7794    5.7319 C   0  0  0  0  0  0
   -1.5714   -3.0121    6.7006 C   0  0  0  0  0  0
   -1.8515   -1.4789    6.2654 C   0  0  0  0  0  0
   -0.7632   -0.5905    5.5708 C   0  0  0  0  0  0
    0.2022   -1.2752    4.4991 C   0  0  0  0  0  0
    1.6209   -0.7120    4.0934 C   0  0  0  0  0  0
    2.4648    0.0610    5.1411 C   0  0  0  0  0  0
    3.9902    0.2748    4.7995 C   0  0  0  0  0  0
    4.3022    0.8393    3.4079 C   0  0  0  0  0  0
    4.5206   -0.1617    2.2381 C   0  0  0  0  0  0
    5.2696   -1.5062    2.4765 C   0  0  0  0  0  0
    4.5845   -2.5101    3.3931 C   0  0  0  0  0  0
    5.6450   -2.1330    1.1948 N   0  0  0  0  0  0
    3.1832   -0.5447    1.8274 O   0  0  0  0  0  0
    4.5436    1.1565    5.7824 O   0  0  0  0  0  0
   -2.9329   -1.5544    5.3213 O   0  0  0  0  0  0
   -1.6372   -5.7851    8.1983 O   0  0  0  0  0  0
   -2.4701   -6.8188    7.9102 C   0  0  0  0  0  0
   -2.1548   -7.8746    7.3951 O   0  0  0  0  0  0
   -3.8414   -6.4838    8.4285 C   0  0  0  0  0  0
   -4.6790   -7.7357    8.7344 C   0  0  0  0  0  0
   -5.4529   -7.6183   10.0537 C   0  0  0  0  0  0
   -6.3475   -6.4006   10.0544 C   0  0  0  0  0  0
   -6.5065   -5.6752    9.0786 O   0  0  0  0  0  0
   -6.9574   -6.1863   11.2296 O   0  0  0  0  0  0
   -5.6587   -7.8845    7.5622 C   0  0  0  0  0  0
   -6.8203   -8.2353    7.7042 O   0  0  0  0  0  0
   -5.1210   -7.6450    6.3582 O   0  0  0  0  0  0
    1.0297   -7.8731    7.0208 O   0  0  0  0  0  0
    1.1849   -9.2315    7.2412 C   0  0  0  0  0  0
    1.7034   -9.7208    8.2363 O   0  0  0  0  0  0
    0.6288  -10.0773    6.0881 C   0  0  0  0  0  0
   -0.1138  -11.3850    6.5041 C   0  0  0  0  0  0
   -1.4666  -11.2499    7.2267 C   0  0  0  0  0  0
   -1.3526  -10.5769    8.5641 C   0  0  0  0  0  0
   -0.3520  -10.5522    9.2674 O   0  0  0  0  0  0
   -2.4885   -9.9622    8.9277 O   0  0  0  0  0  0
   -0.3061  -12.3979    5.3686 C   0  0  0  0  0  0
    0.5549  -13.1884    5.0362 O   0  0  0  0  0  0
   -1.5407  -12.4310    4.8245 O   0  0  0  0  0  0
    5.9571   -3.0875    1.3685 H   0  0  0  0  0  0
    6.4666   -1.6507    0.8236 H   0  0  0  0  0  0
    3.2967   -0.9048    0.9226 H   0  0  0  0  0  0
    4.1741    0.9137    6.6514 H   0  0  0  0  0  0
   -3.3109   -0.6642    5.2252 H   0  0  0  0  0  0
   -6.7542   -6.8365   11.9291 H   0  0  0  0  0  0
   -5.7534   -7.7312    5.6023 H   0  0  0  0  0  0
   -2.8854   -9.5972    8.1088 H   0  0  0  0  0  0
   -1.6740  -13.1111    4.1275 H   0  0  0  0  0  0
  1  2  1  0  0  0
  2  3  1  0  0  0
  3  4  1  0  0  0
  4  5  1  0  0  0
  5  6  1  0  0  0
  5  7  1  0  0  0
  7  8  1  0  0  0
  7 39  1  0  0  0
  8  9  1  0  0  0
  8 27  1  0  0  0
  9 10  1  0  0  0
 10 11  1  0  0  0
 10 12  1  0  0  0
 12 13  1  0  0  0
 13 14  1  0  0  0
 13 26  1  0  0  0
 14 15  1  0  0  0
 15 16  1  0  0  0
 16 17  1  0  0  0
 17 18  1  0  0  0
 18 19  1  0  0  0
 18 25  1  0  0  0
 19 20  1  0  0  0
 20 21  1  0  0  0
 20 24  1  0  0  0
 21 22  1  0  0  0
 21 23  1  0  0  0
 23 51  1  0  0  0
 23 52  1  0  0  0
 24 53  1  0  0  0
 25 54  1  0  0  0
 26 55  1  0  0  0
 27 28  1  0  0  0
 28 29  2  0  0  0
 28 30  1  0  0  0
 30 31  1  0  0  0
 31 32  1  0  0  0
 31 36  1  0  0  0
 32 33  1  0  0  0
 33 34  2  0  0  0
 33 35  1  0  0  0
 35 56  1  0  0  0
 36 37  2  0  0  0
 36 38  1  0  0  0
 38 57  1  0  0  0
 39 40  1  0  0  0
 40 41  2  0  0  0
 40 42  1  0  0  0
 42 43  1  0  0  0
 43 44  1  0  0  0
 43 48  1  0  0  0
 44 45  1  0  0  0
 45 46  2  0  0  0
 45 47  1  0  0  0
 47 58  1  0  0  0
 48 49  2  0  0  0
 48 50  1  0  0  0
 50 59  1  0  0  0
M  END
>  <AUTHOR>
    GENERATED BY OPEN BABEL 2.4.1

>  <CHROM.1>
179.44728337,166.06967703,-61.10003424,-68.56530034,138.22101909,76.77931007
171.61692537,-66.14841497,-90.13372163,148.49766932,-83.84125456,38.11074971
163.73685907,-157.60042604,31.21263236,165.07135991,49.87996209,-90.10147970
40.28423557,-37.73386434,65.66709612,160.61449596,-168.52466152,16.96829854
-154.45015862,137.25156260,56.76050054,-140.89327780,5.62975078,-0.25527356
-179.39362590,-48.43100984,-140.83821303,68.87547417,-63.87216657,83.16682441
-25.49976037,-35.84521983,-177.10957166,-0.37097896,-5.65206750,6.68238104
-0.88531240,-0.39601942,3.00079630

>  <COMPND>
    UNNAMED

>  <MASTER>
        0    0    0    0    0    0    0    0  109    0  109    0

>  <Name>
FB1.pdb

>  <RI>
0

>  <Rbt.Current_Directory>
/home/fc/tossine/F10/p3/2_clust03

>  <Rbt.Executable>
rbdock/0.1.0

>  <Rbt.Library>
librxdock.so/0.1.0

>  <Rbt.Parameter_File>
/cluster/rxdock/data/scripts/dock.prm

>  <Rbt.Receptor>
rx_3.prm

>  <SCORE>
11.1099

>  <SCORE.INTER>
-8.4274

>  <SCORE.INTER.CONST>
1

>  <SCORE.INTER.POLAR>
-4.4988

>  <SCORE.INTER.REPUL>
0.203833

>  <SCORE.INTER.ROT>
32

>  <SCORE.INTER.VDW>
-31.5507

>  <SCORE.INTER.norm>
-0.168548

>  <SCORE.INTRA>
19.4439

>  <SCORE.INTRA.DIHEDRAL>
25.5993

>  <SCORE.INTRA.DIHEDRAL.0>
47.3121

>  <SCORE.INTRA.POLAR>
1.26648

>  <SCORE.INTRA.POLAR.0>
-1.47808

>  <SCORE.INTRA.REPUL>
0

>  <SCORE.INTRA.REPUL.0>
0

>  <SCORE.INTRA.VDW>
2.33826

>  <SCORE.INTRA.VDW.0>
-2.78316

>  <SCORE.INTRA.norm>
0.388878

>  <SCORE.RESTR>
0.0934215

>  <SCORE.RESTR.CAVITY>
0.0934215

>  <SCORE.RESTR.norm>
0.00186843

>  <SCORE.SYSTEM>
0

>  <SCORE.SYSTEM.CONST>
0

>  <SCORE.SYSTEM.DIHEDRAL>
0

>  <SCORE.SYSTEM.norm>
0

>  <SCORE.heavy>
50

>  <SCORE.norm>
0.222199

$$$$
