FB1.pdb
  RxDock  10102001463D
librxdock.so/0.1.0
 59 58  0  0  0  0  0  0  0  0999 V2000
    0.3434  -12.4411    5.9476 C   0  0  0  0  0  0
   -0.8651  -11.5533    5.6601 C   0  0  0  0  0  0
   -1.1204  -10.5527    6.7994 C   0  0  0  0  0  0
   -0.6346   -9.1167    6.4805 C   0  0  0  0  0  0
   -0.8950   -8.0634    7.6133 C   0  0  0  0  0  0
   -0.9071   -8.8034    8.9708 C   0  0  0  0  0  0
    0.1547   -6.8735    7.6249 C   0  0  0  0  0  0
   -0.4360   -5.3845    7.6079 C   0  0  0  0  0  0
    0.0287   -4.2269    6.6220 C   0  0  0  0  0  0
    0.1625   -2.7337    7.3102 C   0  0  0  0  0  0
    1.6441   -2.3721    7.4004 C   0  0  0  0  0  0
   -0.6332   -1.5536    6.5896 C   0  0  0  0  0  0
   -1.8510   -1.7832    5.5490 C   0  0  0  0  0  0
   -2.1764   -0.7688    4.3996 C   0  0  0  0  0  0
   -0.9789    0.0915    3.7871 C   0  0  0  0  0  0
   -0.3009   -0.1975    2.3902 C   0  0  0  0  0  0
    0.8682    0.7010    1.9072 C   0  0  0  0  0  0
    2.2405    0.5437    2.6697 C   0  0  0  0  0  0
    2.7978   -0.8811    2.7784 C   0  0  0  0  0  0
    4.1577   -1.0876    3.5040 C   0  0  0  0  0  0
    4.9010   -2.4534    3.4183 C   0  0  0  0  0  0
    4.0913   -3.6895    3.7841 C   0  0  0  0  0  0
    5.5488   -2.6176    2.1031 N   0  0  0  0  0  0
    5.0548   -0.1322    2.8824 O   0  0  0  0  0  0
    3.2104    1.3621    2.0069 O   0  0  0  0  0  0
   -1.5396   -3.0182    4.8824 O   0  0  0  0  0  0
   -1.8624   -5.5160    7.3615 O   0  0  0  0  0  0
   -2.6511   -4.4742    7.7326 C   0  0  0  0  0  0
   -2.2935   -3.4803    8.3357 O   0  0  0  0  0  0
   -4.0321   -4.7035    7.1835 C   0  0  0  0  0  0
   -5.0768   -4.9293    8.2881 C   0  0  0  0  0  0
   -6.5085   -4.6576    7.8088 C   0  0  0  0  0  0
   -7.4630   -4.5518    8.9754 C   0  0  0  0  0  0
   -7.2153   -4.9841   10.0959 O   0  0  0  0  0  0
   -8.6142   -3.9352    8.6697 O   0  0  0  0  0  0
   -4.9339   -6.3982    8.7099 C   0  0  0  0  0  0
   -3.8528   -6.9453    8.8655 O   0  0  0  0  0  0
   -6.0969   -7.0499    8.8469 O   0  0  0  0  0  0
    1.1615   -7.0582    8.6983 O   0  0  0  0  0  0
    2.3957   -6.4459    8.5567 C   0  0  0  0  0  0
    2.6588   -5.5956    7.7164 O   0  0  0  0  0  0
    3.4194   -6.9519    9.5814 C   0  0  0  0  0  0
    4.3061   -8.1495    9.1185 C   0  0  0  0  0  0
    5.3976   -8.6552   10.0794 C   0  0  0  0  0  0
    6.6502   -9.0836    9.3709 C   0  0  0  0  0  0
    7.7630   -8.6029    9.5355 O   0  0  0  0  0  0
    6.4361  -10.0968    8.5177 O   0  0  0  0  0  0
    3.5207   -9.3765    8.6393 C   0  0  0  0  0  0
    3.6194   -9.8257    7.5145 O   0  0  0  0  0  0
    2.7849   -9.9988    9.5841 O   0  0  0  0  0  0
    5.2203   -3.4818    1.6745 H   0  0  0  0  0  0
    6.5510   -2.7597    2.2480 H   0  0  0  0  0  0
    5.0866   -0.4008    1.9400 H   0  0  0  0  0  0
    3.9070    1.5894    2.6500 H   0  0  0  0  0  0
   -1.3578   -3.6891    5.5616 H   0  0  0  0  0  0
   -9.2056   -3.7580    9.4262 H   0  0  0  0  0  0
   -6.3101   -7.3176    9.7751 H   0  0  0  0  0  0
    7.2518  -10.1903    7.9818 H   0  0  0  0  0  0
    2.2062  -10.7225    9.2562 H   0  0  0  0  0  0
  1  2  1  0  0  0
  2  3  1  0  0  0
  3  4  1  0  0  0
  4  5  1  0  0  0
  5  6  1  0  0  0
  5  7  1  0  0  0
  7  8  1  0  0  0
  7 39  1  0  0  0
  8  9  1  0  0  0
  8 27  1  0  0  0
  9 10  1  0  0  0
 10 11  1  0  0  0
 10 12  1  0  0  0
 12 13  1  0  0  0
 13 14  1  0  0  0
 13 26  1  0  0  0
 14 15  1  0  0  0
 15 16  1  0  0  0
 16 17  1  0  0  0
 17 18  1  0  0  0
 18 19  1  0  0  0
 18 25  1  0  0  0
 19 20  1  0  0  0
 20 21  1  0  0  0
 20 24  1  0  0  0
 21 22  1  0  0  0
 21 23  1  0  0  0
 23 51  1  0  0  0
 23 52  1  0  0  0
 24 53  1  0  0  0
 25 54  1  0  0  0
 26 55  1  0  0  0
 27 28  1  0  0  0
 28 29  2  0  0  0
 28 30  1  0  0  0
 30 31  1  0  0  0
 31 32  1  0  0  0
 31 36  1  0  0  0
 32 33  1  0  0  0
 33 34  2  0  0  0
 33 35  1  0  0  0
 35 56  1  0  0  0
 36 37  2  0  0  0
 36 38  1  0  0  0
 38 57  1  0  0  0
 39 40  1  0  0  0
 40 41  2  0  0  0
 40 42  1  0  0  0
 42 43  1  0  0  0
 43 44  1  0  0  0
 43 48  1  0  0  0
 44 45  1  0  0  0
 45 46  2  0  0  0
 45 47  1  0  0  0
 47 58  1  0  0  0
 48 49  2  0  0  0
 48 50  1  0  0  0
 50 59  1  0  0  0
M  END
>  <AUTHOR>
    GENERATED BY OPEN BABEL 2.4.1

>  <CHROM.1>
102.32968808,179.25603131,28.11672892,127.43791660,-130.55689924,155.85866658
-139.48007025,158.71971667,109.34844705,18.46148297,-151.29478582,29.23951134
51.52058238,103.84536276,-179.32797436,70.78599558,52.84774116,179.19273010
155.24820609,-168.58577592,-52.33131537,-61.44464555,-124.20527534,-5.48544646
114.04082533,159.15211340,-165.94673996,42.46818695,-18.68646489,-173.05481797
-113.13808382,11.80517030,92.21644693,177.08432540,-143.06109889,119.72431131
119.82813345,169.19481861,173.53687877,0.26579775,-5.19142559,6.76167206
-2.40751908,0.18974253,-0.53021179

>  <COMPND>
    UNNAMED

>  <MASTER>
        0    0    0    0    0    0    0    0  109    0  109    0

>  <Name>
FB1.pdb

>  <RI>
0

>  <Rbt.Current_Directory>
/home/fc/tossine/F10/p3/2_clust03

>  <Rbt.Executable>
rbdock/0.1.0

>  <Rbt.Library>
librxdock.so/0.1.0

>  <Rbt.Parameter_File>
/cluster/rxdock/data/scripts/dock.prm

>  <Rbt.Receptor>
rx_3.prm

>  <SCORE>
56.8549

>  <SCORE.INTER>
14.2724

>  <SCORE.INTER.CONST>
1

>  <SCORE.INTER.POLAR>
-0.832907

>  <SCORE.INTER.REPUL>
0.216112

>  <SCORE.INTER.ROT>
32

>  <SCORE.INTER.VDW>
-21.3763

>  <SCORE.INTER.norm>
0.285447

>  <SCORE.INTRA>
42.5825

>  <SCORE.INTRA.DIHEDRAL>
50.1505

>  <SCORE.INTRA.DIHEDRAL.0>
47.3121

>  <SCORE.INTRA.POLAR>
1.36268

>  <SCORE.INTRA.POLAR.0>
-1.47808

>  <SCORE.INTRA.REPUL>
0

>  <SCORE.INTRA.REPUL.0>
0

>  <SCORE.INTRA.VDW>
12.8742

>  <SCORE.INTRA.VDW.0>
-2.78316

>  <SCORE.INTRA.norm>
0.85165

>  <SCORE.RESTR>
0

>  <SCORE.RESTR.CAVITY>
0

>  <SCORE.RESTR.norm>
0

>  <SCORE.SYSTEM>
0

>  <SCORE.SYSTEM.CONST>
0

>  <SCORE.SYSTEM.DIHEDRAL>
0

>  <SCORE.SYSTEM.norm>
0

>  <SCORE.heavy>
50

>  <SCORE.norm>
1.1371

$$$$
