FB1.pdb
  RxDock  10102000083D
librxdock.so/0.1.0
 59 58  0  0  0  0  0  0  0  0999 V2000
   -2.8329   -3.0108    6.4095 C   0  0  0  0  0  0
   -2.5200   -3.5112    7.8178 C   0  0  0  0  0  0
   -2.7147   -5.0317    7.9381 C   0  0  0  0  0  0
   -1.5504   -5.8533    7.3304 C   0  0  0  0  0  0
   -1.6753   -7.4070    7.5056 C   0  0  0  0  0  0
   -2.6732   -7.9360    6.4496 C   0  0  0  0  0  0
   -0.2870   -8.1691    7.4063 C   0  0  0  0  0  0
    1.0136   -7.3749    7.9001 C   0  0  0  0  0  0
    1.2262   -6.7862    9.3618 C   0  0  0  0  0  0
    1.8611   -5.2647    9.4175 C   0  0  0  0  0  0
    2.7191   -5.1428   10.6757 C   0  0  0  0  0  0
    2.7095   -4.8098    8.1454 C   0  0  0  0  0  0
    2.0705   -4.5029    6.6908 C   0  0  0  0  0  0
    0.9109   -3.4691    6.4837 C   0  0  0  0  0  0
    1.0098   -2.0607    7.2293 C   0  0  0  0  0  0
    2.1967   -1.0362    7.0396 C   0  0  0  0  0  0
    2.3405   -0.2727    5.6965 C   0  0  0  0  0  0
    3.5572    0.7247    5.5786 C   0  0  0  0  0  0
    3.8924    1.2237    4.1676 C   0  0  0  0  0  0
    4.5987    0.2443    3.1875 C   0  0  0  0  0  0
    4.4325   -1.2955    3.3509 C   0  0  0  0  0  0
    5.2250   -2.1684    2.3878 C   0  0  0  0  0  0
    4.6683   -1.7042    4.7487 N   0  0  0  0  0  0
    4.0276    0.5480    1.8893 O   0  0  0  0  0  0
    3.2811    1.8583    6.4083 O   0  0  0  0  0  0
    3.1648   -4.0017    5.9047 O   0  0  0  0  0  0
    2.1374   -8.2765    7.7084 O   0  0  0  0  0  0
    2.2515   -9.3137    8.5782 C   0  0  0  0  0  0
    1.5930   -9.4825    9.5869 O   0  0  0  0  0  0
    3.2647  -10.2823    8.0337 C   0  0  0  0  0  0
    4.6520  -10.1063    8.6716 C   0  0  0  0  0  0
    4.7340  -10.7119   10.0787 C   0  0  0  0  0  0
    6.0911  -10.4704   10.6978 C   0  0  0  0  0  0
    7.0261   -9.9484   10.1003 O   0  0  0  0  0  0
    6.1781  -10.8814   11.9715 O   0  0  0  0  0  0
    5.6398  -10.8164    7.7357 C   0  0  0  0  0  0
    6.5670  -10.2423    7.1849 O   0  0  0  0  0  0
    5.3729  -12.1136    7.5311 O   0  0  0  0  0  0
   -0.3738   -9.5208    8.0105 O   0  0  0  0  0  0
   -1.0557  -10.5089    7.3200 C   0  0  0  0  0  0
   -1.0680  -10.6248    6.1015 O   0  0  0  0  0  0
   -1.8083  -11.4627    8.2571 C   0  0  0  0  0  0
   -2.8977  -12.3540    7.5839 C   0  0  0  0  0  0
   -2.4589  -13.7010    6.9808 C   0  0  0  0  0  0
   -2.1115  -14.7248    8.0227 C   0  0  0  0  0  0
   -1.3321  -14.5617    8.9514 O   0  0  0  0  0  0
   -2.7739  -15.8787    7.8492 O   0  0  0  0  0  0
   -4.1271  -12.6286    8.4589 C   0  0  0  0  0  0
   -4.0635  -12.7548    9.6658 O   0  0  0  0  0  0
   -5.3122  -12.6159    7.8134 O   0  0  0  0  0  0
    5.6594   -1.6039    4.9634 H   0  0  0  0  0  0
    4.4806   -2.7058    4.8323 H   0  0  0  0  0  0
    4.3584    1.4465    1.6783 H   0  0  0  0  0  0
    2.4620    2.2782    6.0868 H   0  0  0  0  0  0
    2.8508   -3.8844    4.9925 H   0  0  0  0  0  0
    7.0564  -10.7748   12.3846 H   0  0  0  0  0  0
    4.6238  -12.4682    8.0714 H   0  0  0  0  0  0
   -2.4750  -16.4843    8.5600 H   0  0  0  0  0  0
   -5.2575  -12.5095    6.8378 H   0  0  0  0  0  0
  1  2  1  0  0  0
  2  3  1  0  0  0
  3  4  1  0  0  0
  4  5  1  0  0  0
  5  6  1  0  0  0
  5  7  1  0  0  0
  7  8  1  0  0  0
  7 39  1  0  0  0
  8  9  1  0  0  0
  8 27  1  0  0  0
  9 10  1  0  0  0
 10 11  1  0  0  0
 10 12  1  0  0  0
 12 13  1  0  0  0
 13 14  1  0  0  0
 13 26  1  0  0  0
 14 15  1  0  0  0
 15 16  1  0  0  0
 16 17  1  0  0  0
 17 18  1  0  0  0
 18 19  1  0  0  0
 18 25  1  0  0  0
 19 20  1  0  0  0
 20 21  1  0  0  0
 20 24  1  0  0  0
 21 22  1  0  0  0
 21 23  1  0  0  0
 23 51  1  0  0  0
 23 52  1  0  0  0
 24 53  1  0  0  0
 25 54  1  0  0  0
 26 55  1  0  0  0
 27 28  1  0  0  0
 28 29  2  0  0  0
 28 30  1  0  0  0
 30 31  1  0  0  0
 31 32  1  0  0  0
 31 36  1  0  0  0
 32 33  1  0  0  0
 33 34  2  0  0  0
 33 35  1  0  0  0
 35 56  1  0  0  0
 36 37  2  0  0  0
 36 38  1  0  0  0
 38 57  1  0  0  0
 39 40  1  0  0  0
 40 41  2  0  0  0
 40 42  1  0  0  0
 42 43  1  0  0  0
 43 44  1  0  0  0
 43 48  1  0  0  0
 44 45  1  0  0  0
 45 46  2  0  0  0
 45 47  1  0  0  0
 47 58  1  0  0  0
 48 49  2  0  0  0
 48 50  1  0  0  0
 50 59  1  0  0  0
M  END
>  <AUTHOR>
    GENERATED BY OPEN BABEL 2.4.1

>  <CHROM.1>
77.69175942,176.74368533,78.73839386,30.81572010,58.67609018,73.80563132
-136.37300186,-73.71417612,-147.84319604,69.96287904,55.01811955,44.36958154
174.48320227,58.60387457,70.36307562,-179.52788072,166.15878015,-74.50974616
-60.33700670,25.85287877,-176.77327181,67.90944888,-70.43144701,-8.52864944
98.70320746,77.18119098,-177.61856820,119.90792440,-5.22475141,177.34308956
-5.24697035,35.43472330,164.11458999,87.17647371,71.71740460,-34.18949571
-52.00799660,179.11678744,5.07276052,1.35794193,-7.21369871,7.39076608,1.23815066
-0.12268419,-0.32049034

>  <COMPND>
    UNNAMED

>  <MASTER>
        0    0    0    0    0    0    0    0  109    0  109    0

>  <Name>
FB1.pdb

>  <RI>
0

>  <Rbt.Current_Directory>
/home/fc/tossine/F10/p3/2_clust03

>  <Rbt.Executable>
rbdock/0.1.0

>  <Rbt.Library>
librxdock.so/0.1.0

>  <Rbt.Parameter_File>
/cluster/rxdock/data/scripts/dock.prm

>  <Rbt.Receptor>
rx_1.prm

>  <SCORE>
-1.19898

>  <SCORE.INTER>
-2.46041

>  <SCORE.INTER.CONST>
1

>  <SCORE.INTER.POLAR>
-2.89539

>  <SCORE.INTER.REPUL>
0.135244

>  <SCORE.INTER.ROT>
32

>  <SCORE.INTER.VDW>
-30.6923

>  <SCORE.INTER.norm>
-0.0492082

>  <SCORE.INTRA>
0.820063

>  <SCORE.INTRA.DIHEDRAL>
1.02455

>  <SCORE.INTRA.DIHEDRAL.0>
47.3121

>  <SCORE.INTRA.POLAR>
0.708777

>  <SCORE.INTRA.POLAR.0>
-1.47808

>  <SCORE.INTRA.REPUL>
0

>  <SCORE.INTRA.REPUL.0>
0

>  <SCORE.INTRA.VDW>
-2.10205

>  <SCORE.INTRA.VDW.0>
-2.78316

>  <SCORE.INTRA.norm>
0.0164013

>  <SCORE.RESTR>
0.441362

>  <SCORE.RESTR.CAVITY>
0.441362

>  <SCORE.RESTR.norm>
0.00882725

>  <SCORE.SYSTEM>
0

>  <SCORE.SYSTEM.CONST>
0

>  <SCORE.SYSTEM.DIHEDRAL>
0

>  <SCORE.SYSTEM.norm>
0

>  <SCORE.heavy>
50

>  <SCORE.norm>
-0.0239797

$$$$
