FB1.pdb
  RxDock  10102000093D
librxdock.so/0.1.0
 59 58  0  0  0  0  0  0  0  0999 V2000
   -4.3166   -3.4169    7.8701 C   0  0  0  0  0  0
   -2.8227   -3.5420    7.5803 C   0  0  0  0  0  0
   -2.5509   -3.7872    6.0869 C   0  0  0  0  0  0
   -2.4794   -5.2882    5.7105 C   0  0  0  0  0  0
   -3.6037   -6.1825    6.3402 C   0  0  0  0  0  0
   -4.9409   -5.8455    5.6408 C   0  0  0  0  0  0
   -3.2965   -7.7371    6.2584 C   0  0  0  0  0  0
   -2.0309   -8.2711    7.0825 C   0  0  0  0  0  0
   -1.0027   -9.3702    6.5698 C   0  0  0  0  0  0
   -0.0489  -10.0356    7.7399 C   0  0  0  0  0  0
   -0.9172  -10.9304    8.6228 C   0  0  0  0  0  0
    1.2200  -10.8569    7.2298 C   0  0  0  0  0  0
    2.3727  -11.4431    8.2026 C   0  0  0  0  0  0
    3.4638  -12.4498    7.7006 C   0  0  0  0  0  0
    4.9944  -11.9992    7.7591 C   0  0  0  0  0  0
    5.9892  -12.3811    8.9249 C   0  0  0  0  0  0
    5.5496  -13.4115    9.9984 C   0  0  0  0  0  0
    5.9168  -13.0717   11.4947 C   0  0  0  0  0  0
    4.8502  -13.3990   12.5471 C   0  0  0  0  0  0
    4.8629  -12.6020   13.8824 C   0  0  0  0  0  0
    5.9332  -12.9022   14.9731 C   0  0  0  0  0  0
    5.4191  -13.0887   16.3937 C   0  0  0  0  0  0
    6.7913  -14.0326   14.5702 N   0  0  0  0  0  0
    5.1044  -11.2273   13.4877 O   0  0  0  0  0  0
    7.1159  -13.7798   11.8269 O   0  0  0  0  0  0
    3.1040  -10.2879    8.6468 O   0  0  0  0  0  0
   -1.2054   -7.1072    7.3588 O   0  0  0  0  0  0
   -0.2533   -7.2399    8.3186 C   0  0  0  0  0  0
   -0.3845   -7.8026    9.3890 O   0  0  0  0  0  0
    1.0327   -6.6609    7.7968 C   0  0  0  0  0  0
    2.0293   -6.3299    8.9191 C   0  0  0  0  0  0
    3.3985   -5.8948    8.3810 C   0  0  0  0  0  0
    3.2639   -4.7334    7.4238 C   0  0  0  0  0  0
    2.5520   -4.7561    6.4256 O   0  0  0  0  0  0
    3.9995   -3.6669    7.7708 O   0  0  0  0  0  0
    1.3941   -5.1878    9.7240 C   0  0  0  0  0  0
    1.4989   -5.0881   10.9371 O   0  0  0  0  0  0
    0.6699   -4.3308    8.9912 O   0  0  0  0  0  0
   -4.5142   -8.5386    6.5316 O   0  0  0  0  0  0
   -5.0178   -9.3382    5.5191 C   0  0  0  0  0  0
   -4.7170   -9.2368    4.3369 O   0  0  0  0  0  0
   -6.0103  -10.3854    6.0412 C   0  0  0  0  0  0
   -5.7921  -10.8501    7.5146 C   0  0  0  0  0  0
   -6.5477  -10.1023    8.6283 C   0  0  0  0  0  0
   -6.0941   -8.6804    8.7923 C   0  0  0  0  0  0
   -5.1713   -8.3031    9.5012 O   0  0  0  0  0  0
   -6.8089   -7.8245    8.0461 O   0  0  0  0  0  0
   -6.0087  -12.3503    7.7488 C   0  0  0  0  0  0
   -6.5817  -13.0670    6.9521 O   0  0  0  0  0  0
   -5.4251  -12.8540    8.8565 O   0  0  0  0  0  0
    7.4857  -14.2004   15.2969 H   0  0  0  0  0  0
    7.3322  -13.7552   13.7480 H   0  0  0  0  0  0
    4.3576  -11.0069   12.8918 H   0  0  0  0  0  0
    7.8628  -13.3390   11.3817 H   0  0  0  0  0  0
    2.5652   -9.8285    9.3125 H   0  0  0  0  0  0
    4.5782   -3.7946    8.5469 H   0  0  0  0  0  0
    0.3673   -3.5264    9.4811 H   0  0  0  0  0  0
   -7.5915   -8.3188    7.7230 H   0  0  0  0  0  0
   -5.5084  -13.8269    8.9693 H   0  0  0  0  0  0
  1  2  1  0  0  0
  2  3  1  0  0  0
  3  4  1  0  0  0
  4  5  1  0  0  0
  5  6  1  0  0  0
  5  7  1  0  0  0
  7  8  1  0  0  0
  7 39  1  0  0  0
  8  9  1  0  0  0
  8 27  1  0  0  0
  9 10  1  0  0  0
 10 11  1  0  0  0
 10 12  1  0  0  0
 12 13  1  0  0  0
 13 14  1  0  0  0
 13 26  1  0  0  0
 14 15  1  0  0  0
 15 16  1  0  0  0
 16 17  1  0  0  0
 17 18  1  0  0  0
 18 19  1  0  0  0
 18 25  1  0  0  0
 19 20  1  0  0  0
 20 21  1  0  0  0
 20 24  1  0  0  0
 21 22  1  0  0  0
 21 23  1  0  0  0
 23 51  1  0  0  0
 23 52  1  0  0  0
 24 53  1  0  0  0
 25 54  1  0  0  0
 26 55  1  0  0  0
 27 28  1  0  0  0
 28 29  2  0  0  0
 28 30  1  0  0  0
 30 31  1  0  0  0
 31 32  1  0  0  0
 31 36  1  0  0  0
 32 33  1  0  0  0
 33 34  2  0  0  0
 33 35  1  0  0  0
 35 56  1  0  0  0
 36 37  2  0  0  0
 36 38  1  0  0  0
 38 57  1  0  0  0
 39 40  1  0  0  0
 40 41  2  0  0  0
 40 42  1  0  0  0
 42 43  1  0  0  0
 43 44  1  0  0  0
 43 48  1  0  0  0
 44 45  1  0  0  0
 45 46  2  0  0  0
 45 47  1  0  0  0
 47 58  1  0  0  0
 48 49  2  0  0  0
 48 50  1  0  0  0
 50 59  1  0  0  0
M  END
>  <AUTHOR>
    GENERATED BY OPEN BABEL 2.4.1

>  <CHROM.1>
-91.55177167,44.42841998,71.46529811,64.61069774,-139.98620363,116.12816551
-164.04218319,164.13769124,70.71657815,172.68817657,169.09770049,117.95586216
75.25582495,97.14717370,8.76540471,-137.53725816,140.12572610,-155.20342171
73.69760465,-74.92698410,-131.35479260,59.39277885,179.48459134,-42.10854409
160.93111681,173.28871347,55.06468372,143.57665728,-55.74008629,4.66913192
-171.72231513,-16.05929153,-28.16912137,92.03087664,-66.79368146,-15.61955699
-87.77354261,12.44734159,-175.62525409,-0.09654496,-9.02870255,8.69520717
-2.63776895,0.33020076,2.82156866

>  <COMPND>
    UNNAMED

>  <MASTER>
        0    0    0    0    0    0    0    0  109    0  109    0

>  <Name>
FB1.pdb

>  <RI>
0

>  <Rbt.Current_Directory>
/home/fc/tossine/F10/p3/2_clust03

>  <Rbt.Executable>
rbdock/0.1.0

>  <Rbt.Library>
librxdock.so/0.1.0

>  <Rbt.Parameter_File>
/cluster/rxdock/data/scripts/dock.prm

>  <Rbt.Receptor>
rx_1.prm

>  <SCORE>
23.6572

>  <SCORE.INTER>
-0.686297

>  <SCORE.INTER.CONST>
1

>  <SCORE.INTER.POLAR>
-3.74984

>  <SCORE.INTER.REPUL>
0.484346

>  <SCORE.INTER.ROT>
32

>  <SCORE.INTER.VDW>
-27.7586

>  <SCORE.INTER.norm>
-0.0137259

>  <SCORE.INTRA>
23.2319

>  <SCORE.INTRA.DIHEDRAL>
36.932

>  <SCORE.INTRA.DIHEDRAL.0>
47.3121

>  <SCORE.INTRA.POLAR>
0.729649

>  <SCORE.INTRA.POLAR.0>
-1.47808

>  <SCORE.INTRA.REPUL>
0

>  <SCORE.INTRA.REPUL.0>
0

>  <SCORE.INTRA.VDW>
2.28516

>  <SCORE.INTRA.VDW.0>
-2.78316

>  <SCORE.INTRA.norm>
0.464639

>  <SCORE.RESTR>
1.11152

>  <SCORE.RESTR.CAVITY>
1.11152

>  <SCORE.RESTR.norm>
0.0222303

>  <SCORE.SYSTEM>
0

>  <SCORE.SYSTEM.CONST>
0

>  <SCORE.SYSTEM.DIHEDRAL>
0

>  <SCORE.SYSTEM.norm>
0

>  <SCORE.heavy>
50

>  <SCORE.norm>
0.473143

$$$$
