FB1.pdb
  RxDock  10102001423D
librxdock.so/0.1.0
 59 58  0  0  0  0  0  0  0  0999 V2000
   -3.1021   -9.5302    8.1466 C   0  0  0  0  0  0
   -1.7479   -9.4491    8.8472 C   0  0  0  0  0  0
   -1.0907   -8.0718    8.6585 C   0  0  0  0  0  0
   -0.4986   -7.8588    7.2430 C   0  0  0  0  0  0
   -0.8654   -6.4894    6.5717 C   0  0  0  0  0  0
   -2.3781   -6.4952    6.2520 C   0  0  0  0  0  0
   -0.4762   -5.2281    7.4523 C   0  0  0  0  0  0
    1.0857   -4.9166    7.6236 C   0  0  0  0  0  0
    2.1259   -5.8461    8.3867 C   0  0  0  0  0  0
    2.2673   -5.5561   10.0045 C   0  0  0  0  0  0
    0.8718   -5.5822   10.6258 C   0  0  0  0  0  0
    3.2312   -6.5370   10.8130 C   0  0  0  0  0  0
    3.2696   -8.1420   10.6108 C   0  0  0  0  0  0
    4.0114   -9.0969   11.6078 C   0  0  0  0  0  0
    4.8073  -10.3454   11.0104 C   0  0  0  0  0  0
    4.2257  -11.3322    9.9229 C   0  0  0  0  0  0
    5.1567  -11.8743    8.8064 C   0  0  0  0  0  0
    5.9621  -10.8012    7.9764 C   0  0  0  0  0  0
    6.8692   -9.8613    8.7803 C   0  0  0  0  0  0
    7.6664   -8.7698    8.0114 C   0  0  0  0  0  0
    8.6711   -9.1664    6.8895 C   0  0  0  0  0  0
    9.7555   -8.1499    6.5607 C   0  0  0  0  0  0
    9.2562  -10.4947    7.1536 N   0  0  0  0  0  0
    6.6526   -7.9758    7.3438 O   0  0  0  0  0  0
    6.7646  -11.4967    7.0162 O   0  0  0  0  0  0
    1.8925   -8.5528   10.6523 O   0  0  0  0  0  0
    1.6265   -4.7995    6.2795 O   0  0  0  0  0  0
    2.5211   -3.8013    6.0594 C   0  0  0  0  0  0
    3.4093   -3.8017    5.2284 O   0  0  0  0  0  0
    2.1693   -2.6418    6.9499 C   0  0  0  0  0  0
    2.2325   -1.2930    6.2156 C   0  0  0  0  0  0
    3.6688   -0.8737    5.8772 C   0  0  0  0  0  0
    3.6932    0.4510    5.1507 C   0  0  0  0  0  0
    3.9682    0.5674    3.9614 O   0  0  0  0  0  0
    3.3820    1.4952    5.9328 O   0  0  0  0  0  0
    1.4212   -1.4767    4.9255 C   0  0  0  0  0  0
    1.9312   -1.5090    3.8159 O   0  0  0  0  0  0
    0.0961   -1.5497    5.1113 O   0  0  0  0  0  0
   -1.2384   -4.0267    7.0332 O   0  0  0  0  0  0
   -1.3322   -2.9644    7.9167 C   0  0  0  0  0  0
   -0.8779   -2.9617    9.0533 O   0  0  0  0  0  0
   -2.0781   -1.7670    7.3129 C   0  0  0  0  0  0
   -3.4781   -1.4601    7.9296 C   0  0  0  0  0  0
   -4.3381   -2.6479    8.3984 C   0  0  0  0  0  0
   -4.5424   -3.6822    7.3294 C   0  0  0  0  0  0
   -4.3224   -3.5280    6.1359 O   0  0  0  0  0  0
   -4.9894   -4.8477    7.8216 O   0  0  0  0  0  0
   -3.4615   -0.4348    9.0701 C   0  0  0  0  0  0
   -3.8315   -0.6957   10.1979 O   0  0  0  0  0  0
   -2.9057    0.7576    8.7693 O   0  0  0  0  0  0
    8.9866  -10.7987    8.0882 H   0  0  0  0  0  0
   10.2738  -10.4020    7.1902 H   0  0  0  0  0  0
    7.1531   -7.4160    6.7134 H   0  0  0  0  0  0
    6.1961  -12.1386    6.5524 H   0  0  0  0  0  0
    1.4255   -8.1134    9.9220 H   0  0  0  0  0  0
    3.0595    1.2656    6.8254 H   0  0  0  0  0  0
   -0.4273   -1.6841    4.2826 H   0  0  0  0  0  0
   -4.9810   -4.7622    8.7983 H   0  0  0  0  0  0
   -2.6137    0.8611    7.8365 H   0  0  0  0  0  0
  1  2  1  0  0  0
  2  3  1  0  0  0
  3  4  1  0  0  0
  4  5  1  0  0  0
  5  6  1  0  0  0
  5  7  1  0  0  0
  7  8  1  0  0  0
  7 39  1  0  0  0
  8  9  1  0  0  0
  8 27  1  0  0  0
  9 10  1  0  0  0
 10 11  1  0  0  0
 10 12  1  0  0  0
 12 13  1  0  0  0
 13 14  1  0  0  0
 13 26  1  0  0  0
 14 15  1  0  0  0
 15 16  1  0  0  0
 16 17  1  0  0  0
 17 18  1  0  0  0
 18 19  1  0  0  0
 18 25  1  0  0  0
 19 20  1  0  0  0
 20 21  1  0  0  0
 20 24  1  0  0  0
 21 22  1  0  0  0
 21 23  1  0  0  0
 23 51  1  0  0  0
 23 52  1  0  0  0
 24 53  1  0  0  0
 25 54  1  0  0  0
 26 55  1  0  0  0
 27 28  1  0  0  0
 28 29  2  0  0  0
 28 30  1  0  0  0
 30 31  1  0  0  0
 31 32  1  0  0  0
 31 36  1  0  0  0
 32 33  1  0  0  0
 33 34  2  0  0  0
 33 35  1  0  0  0
 35 56  1  0  0  0
 36 37  2  0  0  0
 36 38  1  0  0  0
 38 57  1  0  0  0
 39 40  1  0  0  0
 40 41  2  0  0  0
 40 42  1  0  0  0
 42 43  1  0  0  0
 43 44  1  0  0  0
 43 48  1  0  0  0
 44 45  1  0  0  0
 45 46  2  0  0  0
 45 47  1  0  0  0
 47 58  1  0  0  0
 48 49  2  0  0  0
 48 50  1  0  0  0
 50 59  1  0  0  0
M  END
>  <AUTHOR>
    GENERATED BY OPEN BABEL 2.4.1

>  <CHROM.1>
-74.99434537,132.93628142,-68.32089013,69.61524382,-65.82705649,160.97483563
-88.34169207,138.51455815,52.14772492,-43.16649267,-167.52375206,-141.29267031
61.00195505,-46.75944312,141.68001159,-52.75230169,57.19418988,-178.99135411
49.11993322,-58.78243276,-157.89142044,-168.25444896,-8.91010124,152.08849319
-135.78806091,-70.38105471,179.70671814,-110.17739702,-108.79333118,-8.25294339
-178.97323604,-3.33239223,111.00928297,-34.64162674,-53.93564644,-119.14129926
-14.87184688,-6.05259545,3.18040731,1.54544017,-5.29223765,7.68780728,2.39576720
0.22722983,-0.38165580

>  <COMPND>
    UNNAMED

>  <MASTER>
        0    0    0    0    0    0    0    0  109    0  109    0

>  <Name>
FB1.pdb

>  <RI>
0

>  <Rbt.Current_Directory>
/home/fc/tossine/F10/p3/2_clust03

>  <Rbt.Executable>
rbdock/0.1.0

>  <Rbt.Library>
librxdock.so/0.1.0

>  <Rbt.Parameter_File>
/cluster/rxdock/data/scripts/dock.prm

>  <Rbt.Receptor>
rx_3.prm

>  <SCORE>
10.4016

>  <SCORE.INTER>
-5.89194

>  <SCORE.INTER.CONST>
1

>  <SCORE.INTER.POLAR>
-2.66825

>  <SCORE.INTER.REPUL>
0.0750641

>  <SCORE.INTER.ROT>
32

>  <SCORE.INTER.VDW>
-34.5952

>  <SCORE.INTER.norm>
-0.117839

>  <SCORE.INTRA>
15.4872

>  <SCORE.INTRA.DIHEDRAL>
6.0637

>  <SCORE.INTRA.DIHEDRAL.0>
47.3121

>  <SCORE.INTRA.POLAR>
1.47808

>  <SCORE.INTRA.POLAR.0>
-1.47808

>  <SCORE.INTRA.REPUL>
0

>  <SCORE.INTRA.REPUL.0>
0

>  <SCORE.INTRA.VDW>
7.42993

>  <SCORE.INTRA.VDW.0>
-2.78316

>  <SCORE.INTRA.norm>
0.309745

>  <SCORE.RESTR>
0.806296

>  <SCORE.RESTR.CAVITY>
0.806296

>  <SCORE.RESTR.norm>
0.0161259

>  <SCORE.SYSTEM>
0

>  <SCORE.SYSTEM.CONST>
0

>  <SCORE.SYSTEM.DIHEDRAL>
0

>  <SCORE.SYSTEM.norm>
0

>  <SCORE.heavy>
50

>  <SCORE.norm>
0.208032

$$$$
