FB1.pdb
  RxDock  10102001033D
librxdock.so/0.1.0
 59 58  0  0  0  0  0  0  0  0999 V2000
    1.6594   -1.2534    1.5356 C   0  0  0  0  0  0
    0.1354   -1.2855    1.4462 C   0  0  0  0  0  0
   -0.5098   -0.2073    2.3324 C   0  0  0  0  0  0
   -0.3079   -0.4520    3.8486 C   0  0  0  0  0  0
   -1.1087   -1.6666    4.4351 C   0  0  0  0  0  0
   -0.4474   -2.9714    3.9342 C   0  0  0  0  0  0
   -1.2097   -1.6532    6.0186 C   0  0  0  0  0  0
   -2.1790   -2.7356    6.6931 C   0  0  0  0  0  0
   -3.7477   -2.8346    6.4530 C   0  0  0  0  0  0
   -4.6522   -3.0439    7.8167 C   0  0  0  0  0  0
   -5.8615   -2.1130    7.7443 C   0  0  0  0  0  0
   -5.1405   -4.5330    8.1148 C   0  0  0  0  0  0
   -5.2934   -5.6814    6.9850 C   0  0  0  0  0  0
   -5.6454   -7.1668    7.3393 C   0  0  0  0  0  0
   -7.0656   -7.4711    8.0024 C   0  0  0  0  0  0
   -8.3065   -8.0529    7.2174 C   0  0  0  0  0  0
   -9.3559   -8.9101    7.9732 C   0  0  0  0  0  0
   -8.8426  -10.2651    8.5976 C   0  0  0  0  0  0
   -8.3607  -11.3308    7.6054 C   0  0  0  0  0  0
   -7.4398  -10.8852    6.4342 C   0  0  0  0  0  0
   -5.9814  -10.4134    6.7096 C   0  0  0  0  0  0
   -5.0763  -11.3988    7.4356 C   0  0  0  0  0  0
   -5.3443   -9.9255    5.4717 N   0  0  0  0  0  0
   -7.3018  -12.0671    5.6049 O   0  0  0  0  0  0
   -7.7688   -9.9595    9.4939 O   0  0  0  0  0  0
   -6.3686   -5.2313    6.1437 O   0  0  0  0  0  0
   -1.6715   -4.0386    6.2966 O   0  0  0  0  0  0
   -1.9546   -5.0857    7.1143 C   0  0  0  0  0  0
   -2.2324   -5.0207    8.2967 O   0  0  0  0  0  0
   -1.9683   -6.3433    6.2898 C   0  0  0  0  0  0
   -1.5627   -7.5849    7.1000 C   0  0  0  0  0  0
   -2.4933   -8.7791    6.8525 C   0  0  0  0  0  0
   -1.9325  -10.0427    7.4626 C   0  0  0  0  0  0
   -2.2361  -10.4497    8.5787 O   0  0  0  0  0  0
   -1.0667  -10.6833    6.6632 O   0  0  0  0  0  0
   -0.1348   -7.9307    6.6554 C   0  0  0  0  0  0
    0.8431   -7.7720    7.3702 O   0  0  0  0  0  0
   -0.0407   -8.3770    5.3953 O   0  0  0  0  0  0
    0.1366   -1.6506    6.6410 O   0  0  0  0  0  0
    0.8534   -0.4657    6.6562 C   0  0  0  0  0  0
    0.3572    0.6468    6.7772 O   0  0  0  0  0  0
    2.3629   -0.6945    6.5035 C   0  0  0  0  0  0
    2.7778   -1.9932    5.7446 C   0  0  0  0  0  0
    4.2714   -2.2056    5.4375 C   0  0  0  0  0  0
    5.1570   -1.9401    6.6206 C   0  0  0  0  0  0
    5.6496   -2.7911    7.3485 O   0  0  0  0  0  0
    5.3860   -0.6312    6.8068 O   0  0  0  0  0  0
    2.2549   -3.2921    6.3705 C   0  0  0  0  0  0
    1.5027   -4.0490    5.7891 O   0  0  0  0  0  0
    2.7699   -3.6012    7.5790 O   0  0  0  0  0  0
   -4.3424   -9.8254    5.6287 H   0  0  0  0  0  0
   -5.6776   -8.9771    5.2846 H   0  0  0  0  0  0
   -6.9401  -12.7506    6.2077 H   0  0  0  0  0  0
   -6.9773   -9.7560    8.9622 H   0  0  0  0  0  0
   -6.4368   -5.8416    5.3905 H   0  0  0  0  0  0
   -0.8717  -10.2365    5.8172 H   0  0  0  0  0  0
    0.8859   -8.4685    5.0608 H   0  0  0  0  0  0
    5.9647   -0.5561    7.5948 H   0  0  0  0  0  0
    2.4122   -4.4189    7.9909 H   0  0  0  0  0  0
  1  2  1  0  0  0
  2  3  1  0  0  0
  3  4  1  0  0  0
  4  5  1  0  0  0
  5  6  1  0  0  0
  5  7  1  0  0  0
  7  8  1  0  0  0
  7 39  1  0  0  0
  8  9  1  0  0  0
  8 27  1  0  0  0
  9 10  1  0  0  0
 10 11  1  0  0  0
 10 12  1  0  0  0
 12 13  1  0  0  0
 13 14  1  0  0  0
 13 26  1  0  0  0
 14 15  1  0  0  0
 15 16  1  0  0  0
 16 17  1  0  0  0
 17 18  1  0  0  0
 18 19  1  0  0  0
 18 25  1  0  0  0
 19 20  1  0  0  0
 20 21  1  0  0  0
 20 24  1  0  0  0
 21 22  1  0  0  0
 21 23  1  0  0  0
 23 51  1  0  0  0
 23 52  1  0  0  0
 24 53  1  0  0  0
 25 54  1  0  0  0
 26 55  1  0  0  0
 27 28  1  0  0  0
 28 29  2  0  0  0
 28 30  1  0  0  0
 30 31  1  0  0  0
 31 32  1  0  0  0
 31 36  1  0  0  0
 32 33  1  0  0  0
 33 34  2  0  0  0
 33 35  1  0  0  0
 35 56  1  0  0  0
 36 37  2  0  0  0
 36 38  1  0  0  0
 38 57  1  0  0  0
 39 40  1  0  0  0
 40 41  2  0  0  0
 40 42  1  0  0  0
 42 43  1  0  0  0
 43 44  1  0  0  0
 43 48  1  0  0  0
 44 45  1  0  0  0
 45 46  2  0  0  0
 45 47  1  0  0  0
 47 58  1  0  0  0
 48 49  2  0  0  0
 48 50  1  0  0  0
 50 59  1  0  0  0
M  END
>  <AUTHOR>
    GENERATED BY OPEN BABEL 2.4.1

>  <CHROM.1>
-67.08679864,-70.21549095,72.38991785,171.64493364,-61.39768904,76.85209746
-134.75862328,154.71677738,135.78402198,-23.30310015,174.06348241,64.06688834
173.96713192,101.60469847,151.46149811,-62.74781262,-64.77039339,44.65936469
-75.43666366,69.00902927,57.12034987,-57.12981558,-167.22361793,-22.96240872
150.64974115,134.49586856,169.85693333,109.18384144,94.59569549,3.06960220
171.08665268,34.58194313,26.58896424,174.00432728,46.72157889,118.18369021
100.79576522,179.80385587,178.13299117,-2.06981069,-5.41243724,6.47973321
0.76173526,0.02606595,-0.19619870

>  <COMPND>
    UNNAMED

>  <MASTER>
        0    0    0    0    0    0    0    0  109    0  109    0

>  <Name>
FB1.pdb

>  <RI>
0

>  <Rbt.Current_Directory>
/home/fc/tossine/F10/p3/2_clust03

>  <Rbt.Executable>
rbdock/0.1.0

>  <Rbt.Library>
librxdock.so/0.1.0

>  <Rbt.Parameter_File>
/cluster/rxdock/data/scripts/dock.prm

>  <Rbt.Receptor>
rx_2.prm

>  <SCORE>
26.5195

>  <SCORE.INTER>
18.1716

>  <SCORE.INTER.CONST>
1

>  <SCORE.INTER.POLAR>
-1.57104

>  <SCORE.INTER.REPUL>
0.545975

>  <SCORE.INTER.ROT>
32

>  <SCORE.INTER.VDW>
-16.6167

>  <SCORE.INTER.norm>
0.363432

>  <SCORE.INTRA>
7.80785

>  <SCORE.INTRA.DIHEDRAL>
12.4545

>  <SCORE.INTRA.DIHEDRAL.0>
47.3121

>  <SCORE.INTRA.POLAR>
0.988737

>  <SCORE.INTRA.POLAR.0>
-1.47808

>  <SCORE.INTRA.REPUL>
0.0286004

>  <SCORE.INTRA.REPUL.0>
0

>  <SCORE.INTRA.VDW>
-1.92412

>  <SCORE.INTRA.VDW.0>
-2.78316

>  <SCORE.INTRA.norm>
0.156157

>  <SCORE.RESTR>
0.540049

>  <SCORE.RESTR.CAVITY>
0.540049

>  <SCORE.RESTR.norm>
0.010801

>  <SCORE.SYSTEM>
0

>  <SCORE.SYSTEM.CONST>
0

>  <SCORE.SYSTEM.DIHEDRAL>
0

>  <SCORE.SYSTEM.norm>
0

>  <SCORE.heavy>
50

>  <SCORE.norm>
0.53039

$$$$
