FB1.pdb
  RxDock  10102000073D
librxdock.so/0.1.0
 59 58  0  0  0  0  0  0  0  0999 V2000
    0.2668   -2.4942    2.8234 C   0  0  0  0  0  0
    1.0889   -3.7375    2.4919 C   0  0  0  0  0  0
    0.4972   -5.0005    3.1391 C   0  0  0  0  0  0
    0.4812   -4.9516    4.6873 C   0  0  0  0  0  0
    0.0625   -6.2914    5.3873 C   0  0  0  0  0  0
    1.2146   -7.3085    5.2177 C   0  0  0  0  0  0
   -0.3177   -6.1145    6.9177 C   0  0  0  0  0  0
   -0.9172   -7.3958    7.6693 C   0  0  0  0  0  0
   -0.6176   -7.7942    9.1792 C   0  0  0  0  0  0
    0.9787   -7.9857    9.5486 C   0  0  0  0  0  0
    1.0856   -8.5212   10.9755 C   0  0  0  0  0  0
    1.8216   -8.9155    8.5638 C   0  0  0  0  0  0
    3.3760   -9.3039    8.7907 C   0  0  0  0  0  0
    3.8203  -10.4785    9.7284 C   0  0  0  0  0  0
    5.3811  -10.6908    9.9887 C   0  0  0  0  0  0
    6.0373  -12.0740   10.3768 C   0  0  0  0  0  0
    7.0207  -12.1445   11.5748 C   0  0  0  0  0  0
    6.3819  -12.0884   13.0163 C   0  0  0  0  0  0
    5.3678  -10.9653   13.2667 C   0  0  0  0  0  0
    4.7705  -10.8161   14.6947 C   0  0  0  0  0  0
    4.6922  -12.0421   15.6519 C   0  0  0  0  0  0
    4.2444  -11.7599   17.0792 C   0  0  0  0  0  0
    3.8911  -13.1263   15.0525 N   0  0  0  0  0  0
    5.6470   -9.8733   15.3632 O   0  0  0  0  0  0
    5.7404  -13.3440   13.2643 O   0  0  0  0  0  0
    3.8619   -9.6613    7.4858 O   0  0  0  0  0  0
   -2.3632   -7.2603    7.6131 O   0  0  0  0  0  0
   -2.9555   -7.4654    6.4079 C   0  0  0  0  0  0
   -2.3874   -7.6855    5.3552 O   0  0  0  0  0  0
   -4.4462   -7.4767    6.6060 C   0  0  0  0  0  0
   -4.9175   -8.6546    7.4736 C   0  0  0  0  0  0
   -6.0798   -8.2752    8.4002 C   0  0  0  0  0  0
   -5.5817   -7.5602    9.6348 C   0  0  0  0  0  0
   -4.4017   -7.5213    9.9663 O   0  0  0  0  0  0
   -6.5569   -6.9664   10.3384 O   0  0  0  0  0  0
   -5.3627   -9.7488    6.4935 C   0  0  0  0  0  0
   -6.4607  -10.2821    6.5432 O   0  0  0  0  0  0
   -4.4269  -10.1090    5.6045 O   0  0  0  0  0  0
    0.7959   -5.4965    7.6779 O   0  0  0  0  0  0
    0.9242   -4.1177    7.6548 C   0  0  0  0  0  0
    1.8952   -3.5016    8.0744 O   0  0  0  0  0  0
   -0.2989   -3.4277    7.0367 C   0  0  0  0  0  0
   -0.8700   -2.2164    7.8374 C   0  0  0  0  0  0
   -1.4284   -1.0222    7.0421 C   0  0  0  0  0  0
   -1.4809    0.2448    7.8461 C   0  0  0  0  0  0
   -0.9420    1.3019    7.5480 O   0  0  0  0  0  0
   -2.2183    0.1159    8.9596 O   0  0  0  0  0  0
   -1.9188   -2.5875    8.8932 C   0  0  0  0  0  0
   -1.7921   -2.3206   10.0720 O   0  0  0  0  0  0
   -3.0529   -3.1402    8.4141 O   0  0  0  0  0  0
    3.8878  -13.9269   15.6831 H   0  0  0  0  0  0
    4.3669  -13.4566   14.2099 H   0  0  0  0  0  0
    6.3308  -10.4319   15.7896 H   0  0  0  0  0  0
    6.4089  -14.0488   13.1816 H   0  0  0  0  0  0
    4.8280   -9.7526    7.5392 H   0  0  0  0  0  0
   -7.4637   -7.1344   10.0174 H   0  0  0  0  0  0
   -4.6279  -10.9439    5.1132 H   0  0  0  0  0  0
   -2.9583   -0.4882    8.7386 H   0  0  0  0  0  0
   -3.6372   -3.5513    9.0893 H   0  0  0  0  0  0
  1  2  1  0  0  0
  2  3  1  0  0  0
  3  4  1  0  0  0
  4  5  1  0  0  0
  5  6  1  0  0  0
  5  7  1  0  0  0
  7  8  1  0  0  0
  7 39  1  0  0  0
  8  9  1  0  0  0
  8 27  1  0  0  0
  9 10  1  0  0  0
 10 11  1  0  0  0
 10 12  1  0  0  0
 12 13  1  0  0  0
 13 14  1  0  0  0
 13 26  1  0  0  0
 14 15  1  0  0  0
 15 16  1  0  0  0
 16 17  1  0  0  0
 17 18  1  0  0  0
 18 19  1  0  0  0
 18 25  1  0  0  0
 19 20  1  0  0  0
 20 21  1  0  0  0
 20 24  1  0  0  0
 21 22  1  0  0  0
 21 23  1  0  0  0
 23 51  1  0  0  0
 23 52  1  0  0  0
 24 53  1  0  0  0
 25 54  1  0  0  0
 26 55  1  0  0  0
 27 28  1  0  0  0
 28 29  2  0  0  0
 28 30  1  0  0  0
 30 31  1  0  0  0
 31 32  1  0  0  0
 31 36  1  0  0  0
 32 33  1  0  0  0
 33 34  2  0  0  0
 33 35  1  0  0  0
 35 56  1  0  0  0
 36 37  2  0  0  0
 36 38  1  0  0  0
 38 57  1  0  0  0
 39 40  1  0  0  0
 40 41  2  0  0  0
 40 42  1  0  0  0
 42 43  1  0  0  0
 43 44  1  0  0  0
 43 48  1  0  0  0
 44 45  1  0  0  0
 45 46  2  0  0  0
 45 47  1  0  0  0
 47 58  1  0  0  0
 48 49  2  0  0  0
 48 50  1  0  0  0
 50 59  1  0  0  0
M  END
>  <AUTHOR>
    GENERATED BY OPEN BABEL 2.4.1

>  <CHROM.1>
-62.31187081,-172.30613331,71.68527984,173.21915929,142.97458471,83.06411214
-56.55644121,72.35527615,-173.47955256,-176.29455250,83.14212911,-174.37639216
170.21592250,-154.02143890,-131.25449882,75.46951622,-49.16542712,-176.54780553
58.13496647,-25.60891343,173.05460656,-90.80045328,177.78880340,-3.97867354
-64.80001055,143.04596534,-80.58029173,-126.84646282,-12.90653167,5.28131347
166.63762049,-169.07158137,132.72122488,143.83693135,-159.09768065,121.96593850
123.11466318,-35.12464915,167.44726565,0.18665070,-7.21376923,8.82271892
-2.25468356,0.31635825,2.67724363

>  <COMPND>
    UNNAMED

>  <MASTER>
        0    0    0    0    0    0    0    0  109    0  109    0

>  <Name>
FB1.pdb

>  <RI>
0

>  <Rbt.Current_Directory>
/home/fc/tossine/F10/p3/2_clust03

>  <Rbt.Executable>
rbdock/0.1.0

>  <Rbt.Library>
librxdock.so/0.1.0

>  <Rbt.Parameter_File>
/cluster/rxdock/data/scripts/dock.prm

>  <Rbt.Receptor>
rx_1.prm

>  <SCORE>
18.3669

>  <SCORE.INTER>
5.69497

>  <SCORE.INTER.CONST>
1

>  <SCORE.INTER.POLAR>
-2.03471

>  <SCORE.INTER.REPUL>
0.593879

>  <SCORE.INTER.ROT>
32

>  <SCORE.INTER.VDW>
-27.7564

>  <SCORE.INTER.norm>
0.113899

>  <SCORE.INTRA>
12.6492

>  <SCORE.INTRA.DIHEDRAL>
10.6789

>  <SCORE.INTRA.DIHEDRAL.0>
47.3121

>  <SCORE.INTRA.POLAR>
0.562361

>  <SCORE.INTRA.POLAR.0>
-1.47808

>  <SCORE.INTRA.REPUL>
0

>  <SCORE.INTRA.REPUL.0>
0

>  <SCORE.INTRA.VDW>
5.39773

>  <SCORE.INTRA.VDW.0>
-2.78316

>  <SCORE.INTRA.norm>
0.252984

>  <SCORE.RESTR>
0.0227336

>  <SCORE.RESTR.CAVITY>
0.0227336

>  <SCORE.RESTR.norm>
0.000454671

>  <SCORE.SYSTEM>
0

>  <SCORE.SYSTEM.CONST>
0

>  <SCORE.SYSTEM.DIHEDRAL>
0

>  <SCORE.SYSTEM.norm>
0

>  <SCORE.heavy>
50

>  <SCORE.norm>
0.367338

$$$$
