FB1.pdb
  RxDock  10092023053D
librxdock.so/0.1.0
 59 58  0  0  0  0  0  0  0  0999 V2000
    0.2583   -1.5846    1.2406 C   0  0  0  0  0  0
    0.0399   -0.9737    2.6228 C   0  0  0  0  0  0
   -0.2512   -2.0502    3.6815 C   0  0  0  0  0  0
   -0.7180   -1.4701    5.0399 C   0  0  0  0  0  0
    0.4144   -0.8097    5.9014 C   0  0  0  0  0  0
   -0.2510    0.0332    7.0138 C   0  0  0  0  0  0
    1.4345   -1.8577    6.5169 C   0  0  0  0  0  0
    0.8133   -3.0471    7.3920 C   0  0  0  0  0  0
   -0.6440   -3.6553    7.2059 C   0  0  0  0  0  0
   -0.8580   -4.5532    5.8387 C   0  0  0  0  0  0
   -0.2095   -5.9203    6.0497 C   0  0  0  0  0  0
   -2.3651   -4.7453    5.3524 C   0  0  0  0  0  0
   -3.5007   -5.5241    6.2024 C   0  0  0  0  0  0
   -4.0696   -4.9670    7.5523 C   0  0  0  0  0  0
   -4.5287   -3.4388    7.6074 C   0  0  0  0  0  0
   -5.5846   -2.8646    8.6320 C   0  0  0  0  0  0
   -6.3363   -3.8357    9.5803 C   0  0  0  0  0  0
   -7.5220   -4.6625    8.9480 C   0  0  0  0  0  0
   -7.1705   -5.5388    7.7393 C   0  0  0  0  0  0
   -7.0089   -7.0695    7.9604 C   0  0  0  0  0  0
   -5.8861   -7.6210    8.8881 C   0  0  0  0  0  0
   -5.8934   -7.1268   10.3279 C   0  0  0  0  0  0
   -5.8384   -9.0946    8.8366 N   0  0  0  0  0  0
   -8.2502   -7.4836    8.5862 O   0  0  0  0  0  0
   -8.0723   -5.4989    9.9714 O   0  0  0  0  0  0
   -4.6339   -5.6014    5.3212 O   0  0  0  0  0  0
    1.7022   -4.1843    7.2211 O   0  0  0  0  0  0
    2.3809   -4.6071    8.3193 C   0  0  0  0  0  0
    2.6302   -3.9464    9.3095 O   0  0  0  0  0  0
    2.6899   -6.0695    8.1540 C   0  0  0  0  0  0
    2.3304   -6.8934    9.4008 C   0  0  0  0  0  0
    3.3018   -6.6551   10.5640 C   0  0  0  0  0  0
    4.3290   -7.7598   10.6515 C   0  0  0  0  0  0
    4.8514   -8.1187   11.7013 O   0  0  0  0  0  0
    4.6171   -8.3167    9.4658 O   0  0  0  0  0  0
    0.9144   -6.4569    9.8011 C   0  0  0  0  0  0
    0.1516   -5.8853    9.0369 O   0  0  0  0  0  0
    0.5978   -6.7104   11.0784 O   0  0  0  0  0  0
    2.3733   -2.3608    5.4848 O   0  0  0  0  0  0
    3.3941   -1.5269    5.0598 C   0  0  0  0  0  0
    3.5079   -0.3494    5.3743 O   0  0  0  0  0  0
    4.3879   -2.2443    4.1368 C   0  0  0  0  0  0
    4.8824   -1.4236    2.9053 C   0  0  0  0  0  0
    5.0779   -2.1675    1.5716 C   0  0  0  0  0  0
    3.8339   -2.8641    1.1006 C   0  0  0  0  0  0
    3.1301   -2.5121    0.1639 O   0  0  0  0  0  0
    3.5599   -3.9651    1.8168 O   0  0  0  0  0  0
    4.0588   -0.1651    2.6054 C   0  0  0  0  0  0
    3.0440   -0.1838    1.9372 O   0  0  0  0  0  0
    4.4745    0.9603    3.2234 O   0  0  0  0  0  0
   -5.2506   -9.4365    9.5956 H   0  0  0  0  0  0
   -5.3541   -9.3760    7.9811 H   0  0  0  0  0  0
   -8.1326   -8.4419    8.7570 H   0  0  0  0  0  0
   -8.6587   -6.1523    9.5476 H   0  0  0  0  0  0
   -5.3118   -6.1498    5.7504 H   0  0  0  0  0  0
    3.8723   -8.3652    8.8363 H   0  0  0  0  0  0
   -0.3402   -6.5053   11.3168 H   0  0  0  0  0  0
    2.8928   -4.4727    1.3082 H   0  0  0  0  0  0
    5.2545    0.8523    3.8118 H   0  0  0  0  0  0
  1  2  1  0  0  0
  2  3  1  0  0  0
  3  4  1  0  0  0
  4  5  1  0  0  0
  5  6  1  0  0  0
  5  7  1  0  0  0
  7  8  1  0  0  0
  7 39  1  0  0  0
  8  9  1  0  0  0
  8 27  1  0  0  0
  9 10  1  0  0  0
 10 11  1  0  0  0
 10 12  1  0  0  0
 12 13  1  0  0  0
 13 14  1  0  0  0
 13 26  1  0  0  0
 14 15  1  0  0  0
 15 16  1  0  0  0
 16 17  1  0  0  0
 17 18  1  0  0  0
 18 19  1  0  0  0
 18 25  1  0  0  0
 19 20  1  0  0  0
 20 21  1  0  0  0
 20 24  1  0  0  0
 21 22  1  0  0  0
 21 23  1  0  0  0
 23 51  1  0  0  0
 23 52  1  0  0  0
 24 53  1  0  0  0
 25 54  1  0  0  0
 26 55  1  0  0  0
 27 28  1  0  0  0
 28 29  2  0  0  0
 28 30  1  0  0  0
 30 31  1  0  0  0
 31 32  1  0  0  0
 31 36  1  0  0  0
 32 33  1  0  0  0
 33 34  2  0  0  0
 33 35  1  0  0  0
 35 56  1  0  0  0
 36 37  2  0  0  0
 36 38  1  0  0  0
 38 57  1  0  0  0
 39 40  1  0  0  0
 40 41  2  0  0  0
 40 42  1  0  0  0
 42 43  1  0  0  0
 43 44  1  0  0  0
 43 48  1  0  0  0
 44 45  1  0  0  0
 45 46  2  0  0  0
 45 47  1  0  0  0
 47 58  1  0  0  0
 48 49  2  0  0  0
 48 50  1  0  0  0
 50 59  1  0  0  0
M  END
>  <AUTHOR>
    GENERATED BY OPEN BABEL 2.4.1

>  <CHROM.1>
-170.05998044,-74.56362136,165.19954373,-54.62129111,28.17984430,74.82878549
70.90454690,114.29726230,76.70090483,-63.67205612,67.88431024,48.23763266
173.75506930,155.79909116,-5.58269025,-77.49776950,57.30610776,102.49199096
-167.18777017,-63.11914961,57.73618462,-177.84742347,-167.40732459,-22.45183459
-131.83659467,-72.82967649,-99.45491791,18.88139528,-150.13931774,-33.77234497
-174.74067640,-7.61195561,138.84671907,-141.84125151,57.00405282,-85.14455385
107.38179994,-165.46962717,-0.86321014,-0.23461993,-4.14124192,6.61187856
0.65027381,-0.01172993,-0.89622328

>  <COMPND>
    UNNAMED

>  <MASTER>
        0    0    0    0    0    0    0    0  109    0  109    0

>  <Name>
FB1.pdb

>  <RI>
0

>  <Rbt.Current_Directory>
/home/fc/tossine/F10/p3/2_clust03

>  <Rbt.Executable>
rbdock/0.1.0

>  <Rbt.Library>
librxdock.so/0.1.0

>  <Rbt.Parameter_File>
/cluster/rxdock/data/scripts/dock.prm

>  <Rbt.Receptor>
rx_0.prm

>  <SCORE>
16.6856

>  <SCORE.INTER>
1.12941

>  <SCORE.INTER.CONST>
1

>  <SCORE.INTER.POLAR>
-3.19239

>  <SCORE.INTER.REPUL>
0.487295

>  <SCORE.INTER.ROT>
32

>  <SCORE.INTER.VDW>
-27.8529

>  <SCORE.INTER.norm>
0.0225883

>  <SCORE.INTRA>
14.6428

>  <SCORE.INTRA.DIHEDRAL>
18.5007

>  <SCORE.INTRA.DIHEDRAL.0>
47.3121

>  <SCORE.INTRA.POLAR>
0.778624

>  <SCORE.INTRA.POLAR.0>
-1.47808

>  <SCORE.INTRA.REPUL>
0.00542827

>  <SCORE.INTRA.REPUL.0>
0

>  <SCORE.INTRA.VDW>
2.71794

>  <SCORE.INTRA.VDW.0>
-2.78316

>  <SCORE.INTRA.norm>
0.292855

>  <SCORE.RESTR>
0.913462

>  <SCORE.RESTR.CAVITY>
0.913462

>  <SCORE.RESTR.norm>
0.0182692

>  <SCORE.SYSTEM>
0

>  <SCORE.SYSTEM.CONST>
0

>  <SCORE.SYSTEM.DIHEDRAL>
0

>  <SCORE.SYSTEM.norm>
0

>  <SCORE.heavy>
50

>  <SCORE.norm>
0.333713

$$$$
