FB1.pdb
  RxDock  10102001403D
librxdock.so/0.1.0
 59 58  0  0  0  0  0  0  0  0999 V2000
   -9.5744   -6.4492    6.0152 C   0  0  0  0  0  0
   -9.2860   -6.2132    7.4959 C   0  0  0  0  0  0
   -7.8636   -5.6739    7.7200 C   0  0  0  0  0  0
   -6.7528   -6.6605    7.2813 C   0  0  0  0  0  0
   -5.3208   -6.3311    7.8303 C   0  0  0  0  0  0
   -5.2527   -6.7788    9.3086 C   0  0  0  0  0  0
   -4.1512   -6.9893    6.9836 C   0  0  0  0  0  0
   -2.6660   -6.8509    7.5677 C   0  0  0  0  0  0
   -1.3356   -6.8628    6.6971 C   0  0  0  0  0  0
    0.0570   -7.0940    7.5507 C   0  0  0  0  0  0
    0.3982   -8.5831    7.5280 C   0  0  0  0  0  0
    1.3226   -6.2479    7.0741 C   0  0  0  0  0  0
    1.3610   -4.6315    7.0080 C   0  0  0  0  0  0
    1.6725   -3.8519    5.6846 C   0  0  0  0  0  0
    3.0106   -4.2111    4.8911 C   0  0  0  0  0  0
    3.5360   -3.4183    3.6302 C   0  0  0  0  0  0
    4.1051   -1.9861    3.8101 C   0  0  0  0  0  0
    4.5549   -1.2356    2.4972 C   0  0  0  0  0  0
    3.4620   -0.9815    1.4515 C   0  0  0  0  0  0
    2.2403   -0.1097    1.8587 C   0  0  0  0  0  0
    1.2071   -0.6324    2.9001 C   0  0  0  0  0  0
    0.7563   -2.0777    2.7406 C   0  0  0  0  0  0
    1.6712   -0.3736    4.2763 N   0  0  0  0  0  0
    2.8191    1.0737    2.4655 O   0  0  0  0  0  0
    5.1199    0.0232    2.8796 O   0  0  0  0  0  0
    0.0383   -4.2146    7.3866 O   0  0  0  0  0  0
   -2.6233   -5.5807    8.2728 O   0  0  0  0  0  0
   -2.8057   -4.4572    7.5313 C   0  0  0  0  0  0
   -3.1867   -4.4109    6.3771 O   0  0  0  0  0  0
   -2.5546   -3.2619    8.4086 C   0  0  0  0  0  0
   -2.9936   -1.9440    7.7506 C   0  0  0  0  0  0
   -3.3833   -0.8741    8.7786 C   0  0  0  0  0  0
   -4.5506   -1.3293    9.6233 C   0  0  0  0  0  0
   -4.4348   -2.0524   10.6069 O   0  0  0  0  0  0
   -5.7335   -0.8642    9.1953 O   0  0  0  0  0  0
   -1.7926   -1.4650    6.9234 C   0  0  0  0  0  0
   -1.2135   -0.4108    7.1372 O   0  0  0  0  0  0
   -1.4592   -2.2771    5.9109 O   0  0  0  0  0  0
   -4.4759   -8.3903    6.6207 O   0  0  0  0  0  0
   -4.6965   -9.3010    7.6405 C   0  0  0  0  0  0
   -4.0696   -9.3352    8.6913 O   0  0  0  0  0  0
   -5.8300  -10.2818    7.3122 C   0  0  0  0  0  0
   -5.4285  -11.7887    7.2619 C   0  0  0  0  0  0
   -4.8454  -12.4249    8.5369 C   0  0  0  0  0  0
   -3.3492  -12.3235    8.6116 C   0  0  0  0  0  0
   -2.7158  -11.7469    9.4850 O   0  0  0  0  0  0
   -2.7405  -12.9647    7.6024 O   0  0  0  0  0  0
   -6.5304  -12.7254    6.7514 C   0  0  0  0  0  0
   -7.6535  -12.3425    6.4893 O   0  0  0  0  0  0
   -6.1440  -13.9952    6.5068 O   0  0  0  0  0  0
    1.2025    0.4565    4.6364 H   0  0  0  0  0  0
    2.6623   -0.1240    4.2453 H   0  0  0  0  0  0
    2.0481    1.5947    2.7744 H   0  0  0  0  0  0
    5.8515   -0.1480    3.5008 H   0  0  0  0  0  0
    0.0681   -3.2638    7.5855 H   0  0  0  0  0  0
   -5.6886   -0.2336    8.4510 H   0  0  0  0  0  0
   -1.4653   -3.2399    6.1384 H   0  0  0  0  0  0
   -1.7761  -12.8485    7.7362 H   0  0  0  0  0  0
   -5.2005  -14.1914    6.7003 H   0  0  0  0  0  0
  1  2  1  0  0  0
  2  3  1  0  0  0
  3  4  1  0  0  0
  4  5  1  0  0  0
  5  6  1  0  0  0
  5  7  1  0  0  0
  7  8  1  0  0  0
  7 39  1  0  0  0
  8  9  1  0  0  0
  8 27  1  0  0  0
  9 10  1  0  0  0
 10 11  1  0  0  0
 10 12  1  0  0  0
 12 13  1  0  0  0
 13 14  1  0  0  0
 13 26  1  0  0  0
 14 15  1  0  0  0
 15 16  1  0  0  0
 16 17  1  0  0  0
 17 18  1  0  0  0
 18 19  1  0  0  0
 18 25  1  0  0  0
 19 20  1  0  0  0
 20 21  1  0  0  0
 20 24  1  0  0  0
 21 22  1  0  0  0
 21 23  1  0  0  0
 23 51  1  0  0  0
 23 52  1  0  0  0
 24 53  1  0  0  0
 25 54  1  0  0  0
 26 55  1  0  0  0
 27 28  1  0  0  0
 28 29  2  0  0  0
 28 30  1  0  0  0
 30 31  1  0  0  0
 31 32  1  0  0  0
 31 36  1  0  0  0
 32 33  1  0  0  0
 33 34  2  0  0  0
 33 35  1  0  0  0
 35 56  1  0  0  0
 36 37  2  0  0  0
 36 38  1  0  0  0
 38 57  1  0  0  0
 39 40  1  0  0  0
 40 41  2  0  0  0
 40 42  1  0  0  0
 42 43  1  0  0  0
 43 44  1  0  0  0
 43 48  1  0  0  0
 44 45  1  0  0  0
 45 46  2  0  0  0
 45 47  1  0  0  0
 47 58  1  0  0  0
 48 49  2  0  0  0
 48 50  1  0  0  0
 50 59  1  0  0  0
M  END
>  <AUTHOR>
    GENERATED BY OPEN BABEL 2.4.1

>  <CHROM.1>
-63.11240348,-164.43258467,77.43845833,-173.01128926,-153.29004845,-60.06180101
-164.93446178,-63.69847244,94.51906585,58.49925723,-122.26845141,-53.81402234
165.59886544,-173.48570301,70.92369783,-177.55293115,61.25827976,60.79140409
56.70896245,-68.35688883,-44.17415503,-176.40236469,99.86164038,11.14744243
-168.94644298,152.38543423,-61.16230153,-118.11148349,82.80501109,-5.21655882
-43.27334106,-38.45038787,119.10308440,60.07199300,-90.43010110,-4.58221049
119.19133231,-179.73071778,1.28137180,-2.18478238,-5.45708673,6.60583467
2.32600354,-0.43495596,3.13856711

>  <COMPND>
    UNNAMED

>  <MASTER>
        0    0    0    0    0    0    0    0  109    0  109    0

>  <Name>
FB1.pdb

>  <RI>
0

>  <Rbt.Current_Directory>
/home/fc/tossine/F10/p3/2_clust03

>  <Rbt.Executable>
rbdock/0.1.0

>  <Rbt.Library>
librxdock.so/0.1.0

>  <Rbt.Parameter_File>
/cluster/rxdock/data/scripts/dock.prm

>  <Rbt.Receptor>
rx_3.prm

>  <SCORE>
12.4597

>  <SCORE.INTER>
1.80692

>  <SCORE.INTER.CONST>
1

>  <SCORE.INTER.POLAR>
-2.85256

>  <SCORE.INTER.REPUL>
0.0534665

>  <SCORE.INTER.ROT>
32

>  <SCORE.INTER.VDW>
-26.1617

>  <SCORE.INTER.norm>
0.0361383

>  <SCORE.INTRA>
9.89495

>  <SCORE.INTRA.DIHEDRAL>
8.74973

>  <SCORE.INTRA.DIHEDRAL.0>
47.3121

>  <SCORE.INTRA.POLAR>
1.10675

>  <SCORE.INTRA.POLAR.0>
-1.47808

>  <SCORE.INTRA.REPUL>
0.0854326

>  <SCORE.INTRA.REPUL.0>
0

>  <SCORE.INTRA.VDW>
1.32998

>  <SCORE.INTRA.VDW.0>
-2.78316

>  <SCORE.INTRA.norm>
0.197899

>  <SCORE.RESTR>
0.757824

>  <SCORE.RESTR.CAVITY>
0.757824

>  <SCORE.RESTR.norm>
0.0151565

>  <SCORE.SYSTEM>
0

>  <SCORE.SYSTEM.CONST>
0

>  <SCORE.SYSTEM.DIHEDRAL>
0

>  <SCORE.SYSTEM.norm>
0

>  <SCORE.heavy>
50

>  <SCORE.norm>
0.249194

$$$$
