FB1.pdb
  RxDock  10102002243D
librxdock.so/0.1.0
 59 58  0  0  0  0  0  0  0  0999 V2000
    0.8599   -0.6514    0.3878 C   0  0  0  0  0  0
    0.5244    0.2816    1.5490 C   0  0  0  0  0  0
    0.3194   -0.4934    2.8612 C   0  0  0  0  0  0
   -0.9084   -1.4377    2.8353 C   0  0  0  0  0  0
   -0.6799   -2.8382    3.5036 C   0  0  0  0  0  0
    0.3467   -3.6207    2.6525 C   0  0  0  0  0  0
   -0.2117   -2.7489    5.0171 C   0  0  0  0  0  0
   -0.8267   -3.8251    6.0318 C   0  0  0  0  0  0
   -0.3267   -4.0684    7.5214 C   0  0  0  0  0  0
    1.2686   -4.4619    7.6682 C   0  0  0  0  0  0
    2.0812   -3.1707    7.7503 C   0  0  0  0  0  0
    1.6487   -5.4118    8.8922 C   0  0  0  0  0  0
    1.1357   -6.9384    9.0497 C   0  0  0  0  0  0
   -0.3766   -7.3327    8.9336 C   0  0  0  0  0  0
   -0.9767   -7.6136    7.4809 C   0  0  0  0  0  0
   -2.5102   -7.5092    7.1175 C   0  0  0  0  0  0
   -3.1782   -8.6384    6.2892 C   0  0  0  0  0  0
   -3.7725   -9.8528    7.1023 C   0  0  0  0  0  0
   -2.7546  -10.8007    7.7488 C   0  0  0  0  0  0
   -2.1302  -11.9220    6.8708 C   0  0  0  0  0  0
   -1.1144  -11.5713    5.7435 C   0  0  0  0  0  0
    0.0043  -10.6081    6.1152 C   0  0  0  0  0  0
   -0.5721  -12.7959    5.1251 N   0  0  0  0  0  0
   -1.3862  -12.7475    7.8030 O   0  0  0  0  0  0
   -4.6185   -9.3248    8.1296 O   0  0  0  0  0  0
    1.7937   -7.6600    7.9947 O   0  0  0  0  0  0
   -2.2340   -3.4909    6.1747 O   0  0  0  0  0  0
   -2.5292   -2.3037    6.7650 C   0  0  0  0  0  0
   -1.7330   -1.5286    7.2598 O   0  0  0  0  0  0
   -4.0044   -2.0521    6.6167 C   0  0  0  0  0  0
   -4.8358   -2.7622    7.6971 C   0  0  0  0  0  0
   -4.6174   -4.2806    7.7047 C   0  0  0  0  0  0
   -5.8227   -5.0019    8.2619 C   0  0  0  0  0  0
   -6.2394   -4.8440    9.4043 O   0  0  0  0  0  0
   -6.3995   -5.8356    7.3838 O   0  0  0  0  0  0
   -4.3890   -2.1605    9.0366 C   0  0  0  0  0  0
   -3.3514   -1.5298    9.1714 O   0  0  0  0  0  0
   -5.2087   -2.4259   10.0630 O   0  0  0  0  0  0
    1.2663   -2.6745    5.1168 O   0  0  0  0  0  0
    1.8742   -1.4370    4.9860 C   0  0  0  0  0  0
    1.5310   -0.4258    5.5844 O   0  0  0  0  0  0
    3.0457   -1.4638    3.9954 C   0  0  0  0  0  0
    4.4148   -1.9336    4.5779 C   0  0  0  0  0  0
    5.6588   -1.8278    3.6770 C   0  0  0  0  0  0
    5.3522   -1.2712    2.3166 C   0  0  0  0  0  0
    5.1437   -0.0938    2.0578 O   0  0  0  0  0  0
    5.3448   -2.2169    1.3649 O   0  0  0  0  0  0
    4.7804   -1.3092    5.9302 C   0  0  0  0  0  0
    4.6847   -0.1188    6.1552 O   0  0  0  0  0  0
    5.1179   -2.1845    6.9003 O   0  0  0  0  0  0
    0.0825  -12.5365    4.3884 H   0  0  0  0  0  0
   -1.3315  -13.2824    4.6433 H   0  0  0  0  0  0
   -0.6426  -12.1796    8.0962 H   0  0  0  0  0  0
   -5.3824   -9.9220    8.2314 H   0  0  0  0  0  0
    1.6339   -7.1864    7.1613 H   0  0  0  0  0  0
   -6.0730   -5.7654    6.4663 H   0  0  0  0  0  0
   -6.0360   -2.9075    9.8131 H   0  0  0  0  0  0
    5.4210   -3.0795    1.8248 H   0  0  0  0  0  0
    5.0294   -3.1333    6.6589 H   0  0  0  0  0  0
  1  2  1  0  0  0
  2  3  1  0  0  0
  3  4  1  0  0  0
  4  5  1  0  0  0
  5  6  1  0  0  0
  5  7  1  0  0  0
  7  8  1  0  0  0
  7 39  1  0  0  0
  8  9  1  0  0  0
  8 27  1  0  0  0
  9 10  1  0  0  0
 10 11  1  0  0  0
 10 12  1  0  0  0
 12 13  1  0  0  0
 13 14  1  0  0  0
 13 26  1  0  0  0
 14 15  1  0  0  0
 15 16  1  0  0  0
 16 17  1  0  0  0
 17 18  1  0  0  0
 18 19  1  0  0  0
 18 25  1  0  0  0
 19 20  1  0  0  0
 20 21  1  0  0  0
 20 24  1  0  0  0
 21 22  1  0  0  0
 21 23  1  0  0  0
 23 51  1  0  0  0
 23 52  1  0  0  0
 24 53  1  0  0  0
 25 54  1  0  0  0
 26 55  1  0  0  0
 27 28  1  0  0  0
 28 29  2  0  0  0
 28 30  1  0  0  0
 30 31  1  0  0  0
 31 32  1  0  0  0
 31 36  1  0  0  0
 32 33  1  0  0  0
 33 34  2  0  0  0
 33 35  1  0  0  0
 35 56  1  0  0  0
 36 37  2  0  0  0
 36 38  1  0  0  0
 38 57  1  0  0  0
 39 40  1  0  0  0
 40 41  2  0  0  0
 40 42  1  0  0  0
 42 43  1  0  0  0
 43 44  1  0  0  0
 43 48  1  0  0  0
 44 45  1  0  0  0
 45 46  2  0  0  0
 45 47  1  0  0  0
 47 58  1  0  0  0
 48 49  2  0  0  0
 48 50  1  0  0  0
 50 59  1  0  0  0
M  END
>  <AUTHOR>
    GENERATED BY OPEN BABEL 2.4.1

>  <CHROM.1>
-65.10084978,138.83868134,-66.66378911,140.75433881,169.57670274,84.26349038
-57.43443143,-65.44656175,86.90310332,64.48780065,-51.23136885,85.54686399
-51.60984590,-157.10653073,-133.84630290,88.22127807,-71.14906521,-82.92567916
143.25150692,70.56103597,47.08444271,-68.33361069,179.58079316,-4.81371041
83.29137226,-57.90118332,-153.78546217,-17.00947256,-61.50082956,-9.77664425
-5.07069062,48.85880270,-84.18837821,-173.11581820,-0.25942643,-46.98336301
76.42007483,7.88797209,-4.36993088,-0.39042264,-4.49087314,6.13930092,0.85199389
0.43576029,-0.12846113

>  <COMPND>
    UNNAMED

>  <MASTER>
        0    0    0    0    0    0    0    0  109    0  109    0

>  <Name>
FB1.pdb

>  <RI>
0

>  <Rbt.Current_Directory>
/home/fc/tossine/F10/p3/2_clust03

>  <Rbt.Executable>
rbdock/0.1.0

>  <Rbt.Library>
librxdock.so/0.1.0

>  <Rbt.Parameter_File>
/cluster/rxdock/data/scripts/dock.prm

>  <Rbt.Receptor>
rx_4.prm

>  <SCORE>
26.77

>  <SCORE.INTER>
5.65138

>  <SCORE.INTER.CONST>
1

>  <SCORE.INTER.POLAR>
-1.92537

>  <SCORE.INTER.REPUL>
0.0964192

>  <SCORE.INTER.ROT>
32

>  <SCORE.INTER.VDW>
-25.6845

>  <SCORE.INTER.norm>
0.113028

>  <SCORE.INTRA>
21.1186

>  <SCORE.INTRA.DIHEDRAL>
25.7929

>  <SCORE.INTRA.DIHEDRAL.0>
47.3121

>  <SCORE.INTRA.POLAR>
1.35793

>  <SCORE.INTRA.POLAR.0>
-1.47808

>  <SCORE.INTRA.REPUL>
0

>  <SCORE.INTRA.REPUL.0>
0

>  <SCORE.INTRA.VDW>
3.60518

>  <SCORE.INTRA.VDW.0>
-2.78316

>  <SCORE.INTRA.norm>
0.422372

>  <SCORE.RESTR>
0

>  <SCORE.RESTR.CAVITY>
0

>  <SCORE.RESTR.norm>
0

>  <SCORE.SYSTEM>
0

>  <SCORE.SYSTEM.CONST>
0

>  <SCORE.SYSTEM.DIHEDRAL>
0

>  <SCORE.SYSTEM.norm>
0

>  <SCORE.heavy>
50

>  <SCORE.norm>
0.5354

$$$$
