FB1.pdb
  RxDock  10102001483D
librxdock.so/0.1.0
 59 58  0  0  0  0  0  0  0  0999 V2000
    0.0877   -1.2451    1.7790 C   0  0  0  0  0  0
   -0.7529   -0.4622    2.7848 C   0  0  0  0  0  0
   -0.2524   -0.6641    4.2246 C   0  0  0  0  0  0
   -1.0277    0.1745    5.2712 C   0  0  0  0  0  0
   -0.4980    0.0502    6.7424 C   0  0  0  0  0  0
   -1.1346    1.1797    7.5848 C   0  0  0  0  0  0
   -0.7726   -1.3692    7.3965 C   0  0  0  0  0  0
   -2.2829   -1.9024    7.3659 C   0  0  0  0  0  0
   -2.7780   -3.2050    6.6003 C   0  0  0  0  0  0
   -1.7502   -4.4933    6.6747 C   0  0  0  0  0  0
   -1.5776   -4.8921    8.1394 C   0  0  0  0  0  0
   -2.1638   -5.7731    5.8170 C   0  0  0  0  0  0
   -3.5640   -6.5662    5.9875 C   0  0  0  0  0  0
   -3.9911   -7.2359    7.3385 C   0  0  0  0  0  0
   -4.1190   -8.8266    7.3881 C   0  0  0  0  0  0
   -2.8888   -9.8161    7.4322 C   0  0  0  0  0  0
   -1.7249   -9.6345    6.4222 C   0  0  0  0  0  0
   -0.6525   -8.5316    6.7724 C   0  0  0  0  0  0
    0.4482   -8.9430    7.7582 C   0  0  0  0  0  0
    1.3611   -7.8317    8.3498 C   0  0  0  0  0  0
    2.6951   -8.2004    9.0639 C   0  0  0  0  0  0
    3.4568   -9.3930    8.5027 C   0  0  0  0  0  0
    3.5732   -7.0205    9.1787 N   0  0  0  0  0  0
    1.7561   -7.0326    7.2056 O   0  0  0  0  0  0
   -0.0353   -8.1120    5.5507 O   0  0  0  0  0  0
   -4.5796   -5.5852    5.7175 O   0  0  0  0  0  0
   -2.6604   -2.1333    8.7503 O   0  0  0  0  0  0
   -3.5521   -1.2679    9.2991 C   0  0  0  0  0  0
   -4.1158   -0.3556    8.7252 O   0  0  0  0  0  0
   -3.8090   -1.6868   10.7203 C   0  0  0  0  0  0
   -5.3072   -1.7322   11.0608 C   0  0  0  0  0  0
   -6.1490   -2.3415    9.9323 C   0  0  0  0  0  0
   -6.9739   -1.2843    9.2358 C   0  0  0  0  0  0
   -6.8578   -0.0826    9.4508 O   0  0  0  0  0  0
   -7.8501   -1.7859    8.3529 O   0  0  0  0  0  0
   -5.4261   -2.5910   12.3273 C   0  0  0  0  0  0
   -5.7252   -3.7753   12.3045 O   0  0  0  0  0  0
   -5.2226   -1.9218   13.4705 O   0  0  0  0  0  0
    0.1841   -2.3848    6.8932 O   0  0  0  0  0  0
    1.5400   -2.1266    7.0073 C   0  0  0  0  0  0
    2.0215   -1.2062    7.6548 O   0  0  0  0  0  0
    2.3937   -3.1326    6.2241 C   0  0  0  0  0  0
    3.7985   -2.6236    5.7745 C   0  0  0  0  0  0
    3.8632   -1.3599    4.8973 C   0  0  0  0  0  0
    3.3824   -1.5945    3.4944 C   0  0  0  0  0  0
    2.8956   -0.7491    2.7562 O   0  0  0  0  0  0
    3.5581   -2.8640    3.0972 O   0  0  0  0  0  0
    4.8036   -2.4337    6.9172 C   0  0  0  0  0  0
    4.6191   -2.8664    8.0377 O   0  0  0  0  0  0
    5.9670   -1.8424    6.5733 O   0  0  0  0  0  0
    4.3969   -7.2690    9.7248 H   0  0  0  0  0  0
    3.0934   -6.3090    9.7345 H   0  0  0  0  0  0
    2.4883   -6.4714    7.5376 H   0  0  0  0  0  0
   -0.7394   -7.9220    4.9037 H   0  0  0  0  0  0
   -4.6666   -5.0186    6.5022 H   0  0  0  0  0  0
   -7.8344   -2.7574    8.2564 H   0  0  0  0  0  0
   -5.2976   -2.4741   14.2879 H   0  0  0  0  0  0
    4.3251   -3.2122    3.5990 H   0  0  0  0  0  0
    6.6589   -1.8398    7.2714 H   0  0  0  0  0  0
  1  2  1  0  0  0
  2  3  1  0  0  0
  3  4  1  0  0  0
  4  5  1  0  0  0
  5  6  1  0  0  0
  5  7  1  0  0  0
  7  8  1  0  0  0
  7 39  1  0  0  0
  8  9  1  0  0  0
  8 27  1  0  0  0
  9 10  1  0  0  0
 10 11  1  0  0  0
 10 12  1  0  0  0
 12 13  1  0  0  0
 13 14  1  0  0  0
 13 26  1  0  0  0
 14 15  1  0  0  0
 15 16  1  0  0  0
 16 17  1  0  0  0
 17 18  1  0  0  0
 18 19  1  0  0  0
 18 25  1  0  0  0
 19 20  1  0  0  0
 20 21  1  0  0  0
 20 24  1  0  0  0
 21 22  1  0  0  0
 21 23  1  0  0  0
 23 51  1  0  0  0
 23 52  1  0  0  0
 24 53  1  0  0  0
 25 54  1  0  0  0
 26 55  1  0  0  0
 27 28  1  0  0  0
 28 29  2  0  0  0
 28 30  1  0  0  0
 30 31  1  0  0  0
 31 32  1  0  0  0
 31 36  1  0  0  0
 32 33  1  0  0  0
 33 34  2  0  0  0
 33 35  1  0  0  0
 35 56  1  0  0  0
 36 37  2  0  0  0
 36 38  1  0  0  0
 38 57  1  0  0  0
 39 40  1  0  0  0
 40 41  2  0  0  0
 40 42  1  0  0  0
 42 43  1  0  0  0
 43 44  1  0  0  0
 43 48  1  0  0  0
 44 45  1  0  0  0
 45 46  2  0  0  0
 45 47  1  0  0  0
 47 58  1  0  0  0
 48 49  2  0  0  0
 48 50  1  0  0  0
 50 59  1  0  0  0
M  END
>  <AUTHOR>
    GENERATED BY OPEN BABEL 2.4.1

>  <CHROM.1>
176.79136675,-177.04378531,166.53464069,-53.10957482,116.69851741,54.69614691
39.39862899,108.55043904,60.90810487,-57.54206172,-59.88685996,-114.36360498
-77.25313258,75.08041534,-48.76689774,80.93052702,82.15284154,-168.31659832
48.55291582,-164.85318425,34.91255905,-167.07014790,174.72863013,3.83550876
-132.25376981,41.53960910,-108.33459355,-98.06968470,7.86752018,-1.21631566
-179.92123658,10.44805727,154.71770653,-57.45239606,-71.81767559,12.82069153
153.02224012,-27.79329694,-171.43174953,-0.94093711,-3.63148070,7.32177131
-0.05503836,0.45601714,-0.16246530

>  <COMPND>
    UNNAMED

>  <MASTER>
        0    0    0    0    0    0    0    0  109    0  109    0

>  <Name>
FB1.pdb

>  <RI>
0

>  <Rbt.Current_Directory>
/home/fc/tossine/F10/p3/2_clust03

>  <Rbt.Executable>
rbdock/0.1.0

>  <Rbt.Library>
librxdock.so/0.1.0

>  <Rbt.Parameter_File>
/cluster/rxdock/data/scripts/dock.prm

>  <Rbt.Receptor>
rx_3.prm

>  <SCORE>
20.8084

>  <SCORE.INTER>
13.9705

>  <SCORE.INTER.CONST>
1

>  <SCORE.INTER.POLAR>
-0.304587

>  <SCORE.INTER.REPUL>
1.56193

>  <SCORE.INTER.ROT>
32

>  <SCORE.INTER.VDW>
-30.2035

>  <SCORE.INTER.norm>
0.279411

>  <SCORE.INTRA>
6.8379

>  <SCORE.INTRA.DIHEDRAL>
8.03537

>  <SCORE.INTRA.DIHEDRAL.0>
47.3121

>  <SCORE.INTRA.POLAR>
1.05828

>  <SCORE.INTRA.POLAR.0>
-1.47808

>  <SCORE.INTRA.REPUL>
0.00361047

>  <SCORE.INTRA.REPUL.0>
0

>  <SCORE.INTRA.VDW>
-0.795987

>  <SCORE.INTRA.VDW.0>
-2.78316

>  <SCORE.INTRA.norm>
0.136758

>  <SCORE.RESTR>
0

>  <SCORE.RESTR.CAVITY>
0

>  <SCORE.RESTR.norm>
0

>  <SCORE.SYSTEM>
0

>  <SCORE.SYSTEM.CONST>
0

>  <SCORE.SYSTEM.DIHEDRAL>
0

>  <SCORE.SYSTEM.norm>
0

>  <SCORE.heavy>
50

>  <SCORE.norm>
0.416169

$$$$
