FB1.pdb
  RxDock  10102002223D
librxdock.so/0.1.0
 59 58  0  0  0  0  0  0  0  0999 V2000
    3.3629   -3.6373    8.8516 C   0  0  0  0  0  0
    3.4925   -2.9995    7.4704 C   0  0  0  0  0  0
    2.1262   -2.5697    6.9112 C   0  0  0  0  0  0
    1.2002   -3.7609    6.5601 C   0  0  0  0  0  0
    0.6669   -3.7719    5.0850 C   0  0  0  0  0  0
    0.8743   -5.1898    4.5043 C   0  0  0  0  0  0
   -0.8494   -3.3223    4.9565 C   0  0  0  0  0  0
   -1.7789   -3.5274    6.2450 C   0  0  0  0  0  0
   -1.8064   -4.8308    7.1553 C   0  0  0  0  0  0
   -2.5686   -6.1333    6.4891 C   0  0  0  0  0  0
   -2.5051   -7.2927    7.4821 C   0  0  0  0  0  0
   -4.0790   -5.9048    6.0294 C   0  0  0  0  0  0
   -5.3392   -5.8581    7.0435 C   0  0  0  0  0  0
   -5.6434   -7.0123    8.0591 C   0  0  0  0  0  0
   -6.0629   -8.4398    7.4799 C   0  0  0  0  0  0
   -5.9731   -9.7903    8.2938 C   0  0  0  0  0  0
   -4.5820  -10.3928    8.6245 C   0  0  0  0  0  0
   -3.9073  -11.2693    7.4994 C   0  0  0  0  0  0
   -2.5334  -10.7999    7.0050 C   0  0  0  0  0  0
   -1.6610  -11.7991    6.1933 C   0  0  0  0  0  0
   -0.3437  -11.3259    5.5104 C   0  0  0  0  0  0
    0.4343  -10.2300    6.2254 C   0  0  0  0  0  0
    0.5285  -12.4742    5.1987 N   0  0  0  0  0  0
   -1.2448  -12.7950    7.1623 O   0  0  0  0  0  0
   -3.7792  -12.6053    7.9978 O   0  0  0  0  0  0
   -5.1172   -4.6927    7.8554 O   0  0  0  0  0  0
   -1.4416   -2.4534    7.1644 O   0  0  0  0  0  0
   -2.2876   -2.2452    8.2067 C   0  0  0  0  0  0
   -3.0633   -3.0557    8.6766 O   0  0  0  0  0  0
   -2.0356   -0.8684    8.7565 C   0  0  0  0  0  0
   -3.3119   -0.0141    8.8167 C   0  0  0  0  0  0
   -4.4454   -0.7027    9.5875 C   0  0  0  0  0  0
   -5.5671   -1.1089    8.6600 C   0  0  0  0  0  0
   -6.7504   -0.8799    8.8857 O   0  0  0  0  0  0
   -5.1449   -1.7464    7.5581 O   0  0  0  0  0  0
   -2.9137    1.2899    9.5217 C   0  0  0  0  0  0
   -2.8364    1.3946   10.7364 O   0  0  0  0  0  0
   -2.7045    2.3239    8.6952 O   0  0  0  0  0  0
   -0.9558   -1.9478    4.4094 O   0  0  0  0  0  0
   -0.0295   -1.0025    4.8174 C   0  0  0  0  0  0
   -0.2607   -0.0968    5.6077 O   0  0  0  0  0  0
    1.3436   -1.2112    4.1651 C   0  0  0  0  0  0
    1.5867   -0.4333    2.8346 C   0  0  0  0  0  0
    2.8631   -0.7505    2.0342 C   0  0  0  0  0  0
    3.1217   -2.2236    1.9019 C   0  0  0  0  0  0
    2.3043   -3.1121    2.0994 O   0  0  0  0  0  0
    4.3777   -2.4913    1.5130 O   0  0  0  0  0  0
    0.4124   -0.4733    1.8489 C   0  0  0  0  0  0
   -0.6195   -1.0738    2.0753 O   0  0  0  0  0  0
    0.5534    0.2948    0.7482 O   0  0  0  0  0  0
    0.2163  -12.9045    4.3293 H   0  0  0  0  0  0
    0.3901  -13.1928    5.9128 H   0  0  0  0  0  0
   -2.0691  -13.2721    7.3952 H   0  0  0  0  0  0
   -3.2895  -12.5701    8.8401 H   0  0  0  0  0  0
   -4.2699   -4.8054    8.3180 H   0  0  0  0  0  0
   -5.8514   -2.0551    6.9589 H   0  0  0  0  0  0
   -2.4796    3.1733    9.1499 H   0  0  0  0  0  0
    4.4745   -3.4669    1.5266 H   0  0  0  0  0  0
   -0.2323    0.3317    0.1588 H   0  0  0  0  0  0
  1  2  1  0  0  0
  2  3  1  0  0  0
  3  4  1  0  0  0
  4  5  1  0  0  0
  5  6  1  0  0  0
  5  7  1  0  0  0
  7  8  1  0  0  0
  7 39  1  0  0  0
  8  9  1  0  0  0
  8 27  1  0  0  0
  9 10  1  0  0  0
 10 11  1  0  0  0
 10 12  1  0  0  0
 12 13  1  0  0  0
 13 14  1  0  0  0
 13 26  1  0  0  0
 14 15  1  0  0  0
 15 16  1  0  0  0
 16 17  1  0  0  0
 17 18  1  0  0  0
 18 19  1  0  0  0
 18 25  1  0  0  0
 19 20  1  0  0  0
 20 21  1  0  0  0
 20 24  1  0  0  0
 21 22  1  0  0  0
 21 23  1  0  0  0
 23 51  1  0  0  0
 23 52  1  0  0  0
 24 53  1  0  0  0
 25 54  1  0  0  0
 26 55  1  0  0  0
 27 28  1  0  0  0
 28 29  2  0  0  0
 28 30  1  0  0  0
 30 31  1  0  0  0
 31 32  1  0  0  0
 31 36  1  0  0  0
 32 33  1  0  0  0
 33 34  2  0  0  0
 33 35  1  0  0  0
 35 56  1  0  0  0
 36 37  2  0  0  0
 36 38  1  0  0  0
 38 57  1  0  0  0
 39 40  1  0  0  0
 40 41  2  0  0  0
 40 42  1  0  0  0
 42 43  1  0  0  0
 43 44  1  0  0  0
 43 48  1  0  0  0
 44 45  1  0  0  0
 45 46  2  0  0  0
 45 47  1  0  0  0
 47 58  1  0  0  0
 48 49  2  0  0  0
 48 50  1  0  0  0
 50 59  1  0  0  0
M  END
>  <AUTHOR>
    GENERATED BY OPEN BABEL 2.4.1

>  <CHROM.1>
-68.33101899,-124.75254120,132.14430315,-25.29981856,-44.18760546,-38.55299588
-74.36057903,166.52845027,179.91505769,-77.31073952,-54.17625161,-65.95272066
-59.70984592,160.43705668,-70.26010031,-83.47318845,121.37671372,164.06811815
-55.06153034,172.08343012,32.95867996,68.26381206,81.52532641,22.32428390
125.67447988,54.22487660,-110.70512928,-81.71412883,-132.22403305,177.45716027
177.90981975,-105.26147188,91.93384353,-171.71194643,45.38897799,-0.81489976
16.71327135,175.40113186,-174.68375363,-1.49882446,-4.31764725,6.34195147
-1.20438007,-0.67768726,-3.11013633

>  <COMPND>
    UNNAMED

>  <MASTER>
        0    0    0    0    0    0    0    0  109    0  109    0

>  <Name>
FB1.pdb

>  <RI>
0

>  <Rbt.Current_Directory>
/home/fc/tossine/F10/p3/2_clust03

>  <Rbt.Executable>
rbdock/0.1.0

>  <Rbt.Library>
librxdock.so/0.1.0

>  <Rbt.Parameter_File>
/cluster/rxdock/data/scripts/dock.prm

>  <Rbt.Receptor>
rx_4.prm

>  <SCORE>
10.8084

>  <SCORE.INTER>
-7.46078

>  <SCORE.INTER.CONST>
1

>  <SCORE.INTER.POLAR>
-4.01744

>  <SCORE.INTER.REPUL>
0.311819

>  <SCORE.INTER.ROT>
32

>  <SCORE.INTER.VDW>
-32.7606

>  <SCORE.INTER.norm>
-0.149216

>  <SCORE.INTRA>
18.2606

>  <SCORE.INTRA.DIHEDRAL>
32.4496

>  <SCORE.INTRA.DIHEDRAL.0>
47.3121

>  <SCORE.INTRA.POLAR>
0.589419

>  <SCORE.INTRA.POLAR.0>
-1.47808

>  <SCORE.INTRA.REPUL>
0

>  <SCORE.INTRA.REPUL.0>
0

>  <SCORE.INTRA.VDW>
0.0318057

>  <SCORE.INTRA.VDW.0>
-2.78316

>  <SCORE.INTRA.norm>
0.365213

>  <SCORE.RESTR>
0.00852705

>  <SCORE.RESTR.CAVITY>
0.00852705

>  <SCORE.RESTR.norm>
0.000170541

>  <SCORE.SYSTEM>
0

>  <SCORE.SYSTEM.CONST>
0

>  <SCORE.SYSTEM.DIHEDRAL>
0

>  <SCORE.SYSTEM.norm>
0

>  <SCORE.heavy>
50

>  <SCORE.norm>
0.216168

$$$$
