FB1.pdb
  RxDock  10102002173D
librxdock.so/0.1.0
 59 58  0  0  0  0  0  0  0  0999 V2000
    0.1805   -0.6346    1.5185 C   0  0  0  0  0  0
    0.8857   -1.9109    1.9711 C   0  0  0  0  0  0
    0.1756   -2.5588    3.1713 C   0  0  0  0  0  0
    0.9475   -3.7609    3.7703 C   0  0  0  0  0  0
    0.3603   -4.3217    5.1123 C   0  0  0  0  0  0
    1.3040   -5.4324    5.6285 C   0  0  0  0  0  0
    0.1359   -3.2077    6.2198 C   0  0  0  0  0  0
   -1.1966   -3.3194    7.1018 C   0  0  0  0  0  0
   -1.5084   -4.4771    8.1462 C   0  0  0  0  0  0
   -1.8234   -5.9533    7.4806 C   0  0  0  0  0  0
   -2.3411   -5.7437    6.0586 C   0  0  0  0  0  0
   -0.6104   -6.9891    7.4610 C   0  0  0  0  0  0
   -0.0624   -7.7700    8.7682 C   0  0  0  0  0  0
   -0.8687   -8.9241    9.4567 C   0  0  0  0  0  0
   -1.4749  -10.0786    8.5355 C   0  0  0  0  0  0
   -2.9497  -10.6306    8.6577 C   0  0  0  0  0  0
   -3.6432  -11.2416    7.4114 C   0  0  0  0  0  0
   -3.9730  -10.2492    6.2301 C   0  0  0  0  0  0
   -5.4004   -9.6893    6.1916 C   0  0  0  0  0  0
   -5.7754   -8.5567    7.1891 C   0  0  0  0  0  0
   -5.2430   -8.5826    8.6524 C   0  0  0  0  0  0
   -4.1077   -7.6219    8.9774 C   0  0  0  0  0  0
   -6.3497   -8.4367    9.6169 N   0  0  0  0  0  0
   -5.2138   -7.3530    6.6065 O   0  0  0  0  0  0
   -3.0561   -9.1522    6.3057 O   0  0  0  0  0  0
    1.1722   -8.3741    8.3472 O   0  0  0  0  0  0
   -1.2680   -2.0981    7.8866 O   0  0  0  0  0  0
   -2.4371   -1.8462    8.5308 C   0  0  0  0  0  0
   -3.4614   -2.4964    8.4431 O   0  0  0  0  0  0
   -2.2285   -0.6803    9.4573 C   0  0  0  0  0  0
   -3.2748    0.4276    9.2569 C   0  0  0  0  0  0
   -4.2062    0.5833   10.4659 C   0  0  0  0  0  0
   -3.4174    0.7448   11.7445 C   0  0  0  0  0  0
   -3.1106   -0.1911   12.4751 O   0  0  0  0  0  0
   -3.0800    2.0160   12.0073 O   0  0  0  0  0  0
   -2.4809    1.7225    9.0353 C   0  0  0  0  0  0
   -2.6608    2.4594    8.0777 O   0  0  0  0  0  0
   -1.5353    1.9558    9.9557 O   0  0  0  0  0  0
    1.3453   -3.0383    7.0616 O   0  0  0  0  0  0
    2.2815   -2.0891    6.6868 C   0  0  0  0  0  0
    3.3990   -1.9827    7.1748 O   0  0  0  0  0  0
    1.7648   -1.1667    5.5748 C   0  0  0  0  0  0
    2.7957   -0.1384    5.0141 C   0  0  0  0  0  0
    3.2856    0.9796    5.9524 C   0  0  0  0  0  0
    3.8632    2.1531    5.2151 C   0  0  0  0  0  0
    3.3933    3.2824    5.1914 O   0  0  0  0  0  0
    4.9996    1.8459    4.5713 O   0  0  0  0  0  0
    4.0381   -0.7670    4.3711 C   0  0  0  0  0  0
    4.7598   -1.5502    4.9564 O   0  0  0  0  0  0
    4.2248   -0.4772    3.0664 O   0  0  0  0  0  0
   -6.4663   -7.4503    9.8448 H   0  0  0  0  0  0
   -6.0766   -8.8799   10.4969 H   0  0  0  0  0  0
   -5.7010   -7.2363    5.7636 H   0  0  0  0  0  0
   -3.1811   -8.5962    5.5147 H   0  0  0  0  0  0
    1.7854   -7.6626    8.0977 H   0  0  0  0  0  0
   -3.4066    2.6750   11.3649 H   0  0  0  0  0  0
   -1.4107    1.2244   10.6102 H   0  0  0  0  0  0
    5.3582    2.6868    4.2168 H   0  0  0  0  0  0
    4.9398   -0.9846    2.6219 H   0  0  0  0  0  0
  1  2  1  0  0  0
  2  3  1  0  0  0
  3  4  1  0  0  0
  4  5  1  0  0  0
  5  6  1  0  0  0
  5  7  1  0  0  0
  7  8  1  0  0  0
  7 39  1  0  0  0
  8  9  1  0  0  0
  8 27  1  0  0  0
  9 10  1  0  0  0
 10 11  1  0  0  0
 10 12  1  0  0  0
 12 13  1  0  0  0
 13 14  1  0  0  0
 13 26  1  0  0  0
 14 15  1  0  0  0
 15 16  1  0  0  0
 16 17  1  0  0  0
 17 18  1  0  0  0
 18 19  1  0  0  0
 18 25  1  0  0  0
 19 20  1  0  0  0
 20 21  1  0  0  0
 20 24  1  0  0  0
 21 22  1  0  0  0
 21 23  1  0  0  0
 23 51  1  0  0  0
 23 52  1  0  0  0
 24 53  1  0  0  0
 25 54  1  0  0  0
 26 55  1  0  0  0
 27 28  1  0  0  0
 28 29  2  0  0  0
 28 30  1  0  0  0
 30 31  1  0  0  0
 31 32  1  0  0  0
 31 36  1  0  0  0
 32 33  1  0  0  0
 33 34  2  0  0  0
 33 35  1  0  0  0
 35 56  1  0  0  0
 36 37  2  0  0  0
 36 38  1  0  0  0
 38 57  1  0  0  0
 39 40  1  0  0  0
 40 41  2  0  0  0
 40 42  1  0  0  0
 42 43  1  0  0  0
 43 44  1  0  0  0
 43 48  1  0  0  0
 44 45  1  0  0  0
 45 46  2  0  0  0
 45 47  1  0  0  0
 47 58  1  0  0  0
 48 49  2  0  0  0
 48 50  1  0  0  0
 50 59  1  0  0  0
M  END
>  <AUTHOR>
    GENERATED BY OPEN BABEL 2.4.1

>  <CHROM.1>
-173.16395355,171.86982683,-175.53322056,140.04830037,66.92629666,91.74031062
-70.69069227,168.14081704,-24.82802115,73.90817234,71.73135632,47.71323958
62.34511076,-133.92093902,152.94775443,-67.09315607,-96.75201441,76.68794871
172.89109781,-39.07026185,104.31058177,64.11862168,-92.47845862,-5.32821389
127.74723725,112.96166422,52.26709615,127.21590919,-92.99399003,1.94200827
5.52202522,-168.93904723,-175.40567297,-66.56181803,-159.70604755,-55.59872236
114.35822838,-173.14808567,-171.20162191,-0.85097559,-3.47789714,7.13890063
-0.86808125,-0.69421518,-2.84999802

>  <COMPND>
    UNNAMED

>  <MASTER>
        0    0    0    0    0    0    0    0  109    0  109    0

>  <Name>
FB1.pdb

>  <RI>
0

>  <Rbt.Current_Directory>
/home/fc/tossine/F10/p3/2_clust03

>  <Rbt.Executable>
rbdock/0.1.0

>  <Rbt.Library>
librxdock.so/0.1.0

>  <Rbt.Parameter_File>
/cluster/rxdock/data/scripts/dock.prm

>  <Rbt.Receptor>
rx_4.prm

>  <SCORE>
17.4353

>  <SCORE.INTER>
-0.100387

>  <SCORE.INTER.CONST>
1

>  <SCORE.INTER.POLAR>
-2.2127

>  <SCORE.INTER.REPUL>
0.127039

>  <SCORE.INTER.ROT>
32

>  <SCORE.INTER.VDW>
-30.6124

>  <SCORE.INTER.norm>
-0.00200773

>  <SCORE.INTRA>
17.1866

>  <SCORE.INTRA.DIHEDRAL>
11.0021

>  <SCORE.INTRA.DIHEDRAL.0>
47.3121

>  <SCORE.INTRA.POLAR>
1.47808

>  <SCORE.INTRA.POLAR.0>
-1.47808

>  <SCORE.INTRA.REPUL>
0

>  <SCORE.INTRA.REPUL.0>
0

>  <SCORE.INTRA.VDW>
6.66007

>  <SCORE.INTRA.VDW.0>
-2.78316

>  <SCORE.INTRA.norm>
0.343732

>  <SCORE.RESTR>
0.349091

>  <SCORE.RESTR.CAVITY>
0.349091

>  <SCORE.RESTR.norm>
0.00698182

>  <SCORE.SYSTEM>
0

>  <SCORE.SYSTEM.CONST>
0

>  <SCORE.SYSTEM.DIHEDRAL>
0

>  <SCORE.SYSTEM.norm>
0

>  <SCORE.heavy>
50

>  <SCORE.norm>
0.348706

$$$$
