FB1.pdb
  RxDock  10102000573D
librxdock.so/0.1.0
 59 58  0  0  0  0  0  0  0  0999 V2000
    5.7955   -1.2246    1.8331 C   0  0  0  0  0  0
    5.3173   -1.6377    3.2231 C   0  0  0  0  0  0
    4.0049   -0.9340    3.6062 C   0  0  0  0  0  0
    2.7681   -1.4792    2.8495 C   0  0  0  0  0  0
    1.3924   -0.8894    3.3187 C   0  0  0  0  0  0
    0.2897   -1.4170    2.3720 C   0  0  0  0  0  0
    1.0459   -1.2174    4.8320 C   0  0  0  0  0  0
   -0.5055   -1.2533    5.2299 C   0  0  0  0  0  0
   -1.1421   -2.1881    6.3475 C   0  0  0  0  0  0
   -2.6508   -2.7604    6.0045 C   0  0  0  0  0  0
   -2.7266   -4.2217    6.4437 C   0  0  0  0  0  0
   -3.8708   -1.9484    6.6347 C   0  0  0  0  0  0
   -4.3740   -2.1085    8.1643 C   0  0  0  0  0  0
   -5.4417   -3.1737    8.5904 C   0  0  0  0  0  0
   -5.5327   -4.5310    7.7547 C   0  0  0  0  0  0
   -6.3252   -5.8134    8.2259 C   0  0  0  0  0  0
   -5.7925   -6.6444    9.4230 C   0  0  0  0  0  0
   -5.5806   -8.1875    9.1720 C   0  0  0  0  0  0
   -6.7914   -8.9610    8.6351 C   0  0  0  0  0  0
   -6.5418  -10.3244    7.9299 C   0  0  0  0  0  0
   -6.3711  -10.3959    6.3836 C   0  0  0  0  0  0
   -5.1332   -9.7235    5.8068 C   0  0  0  0  0  0
   -6.4865  -11.7869    5.9059 N   0  0  0  0  0  0
   -5.2788  -10.7913    8.4691 O   0  0  0  0  0  0
   -4.4975   -8.3401    8.2482 O   0  0  0  0  0  0
   -3.1912   -2.4439    8.9093 O   0  0  0  0  0  0
   -0.8484    0.0951    5.6504 O   0  0  0  0  0  0
   -0.3881    0.4989    6.8630 C   0  0  0  0  0  0
    0.6644    0.1726    7.3780 O   0  0  0  0  0  0
   -1.3532    1.5044    7.4277 C   0  0  0  0  0  0
   -1.6527    1.2639    8.9160 C   0  0  0  0  0  0
   -0.9171    2.2509    9.8315 C   0  0  0  0  0  0
   -1.0245    1.8345   11.2801 C   0  0  0  0  0  0
   -2.0194    1.3030   11.7611 O   0  0  0  0  0  0
    0.0782    2.1007   11.9957 O   0  0  0  0  0  0
   -3.1702    1.4324    9.0735 C   0  0  0  0  0  0
   -3.8977    0.5516    9.5063 O   0  0  0  0  0  0
   -3.6425    2.6127    8.6495 O   0  0  0  0  0  0
    1.7651   -2.4289    5.2955 O   0  0  0  0  0  0
    1.2717   -3.6695    4.9275 C   0  0  0  0  0  0
    0.3030   -3.8459    4.2004 O   0  0  0  0  0  0
    2.0800   -4.8231    5.5359 C   0  0  0  0  0  0
    1.3424   -5.6694    6.6196 C   0  0  0  0  0  0
    0.6148   -4.9201    7.7509 C   0  0  0  0  0  0
    0.2733   -5.8045    8.9152 C   0  0  0  0  0  0
   -0.2617   -6.9024    8.8446 O   0  0  0  0  0  0
    0.6392   -5.2700   10.0903 O   0  0  0  0  0  0
    0.3617   -6.7072    6.0598 C   0  0  0  0  0  0
    0.3481   -7.8665    6.4239 O   0  0  0  0  0  0
   -0.5662   -6.2261    5.2062 O   0  0  0  0  0  0
   -7.4707  -12.0499    5.8777 H   0  0  0  0  0  0
   -6.0680  -12.4073    6.6027 H   0  0  0  0  0  0
   -5.1716  -11.6934    8.1001 H   0  0  0  0  0  0
   -4.2705   -9.2870    8.1993 H   0  0  0  0  0  0
   -3.4610   -2.6748    9.8139 H   0  0  0  0  0  0
    0.7498    2.6434   11.5398 H   0  0  0  0  0  0
   -4.6293    2.6834    8.6495 H   0  0  0  0  0  0
    0.9627   -4.3644    9.8988 H   0  0  0  0  0  0
   -0.5494   -5.2523    5.0732 H   0  0  0  0  0  0
  1  2  1  0  0  0
  2  3  1  0  0  0
  3  4  1  0  0  0
  4  5  1  0  0  0
  5  6  1  0  0  0
  5  7  1  0  0  0
  7  8  1  0  0  0
  7 39  1  0  0  0
  8  9  1  0  0  0
  8 27  1  0  0  0
  9 10  1  0  0  0
 10 11  1  0  0  0
 10 12  1  0  0  0
 12 13  1  0  0  0
 13 14  1  0  0  0
 13 26  1  0  0  0
 14 15  1  0  0  0
 15 16  1  0  0  0
 16 17  1  0  0  0
 17 18  1  0  0  0
 18 19  1  0  0  0
 18 25  1  0  0  0
 19 20  1  0  0  0
 20 21  1  0  0  0
 20 24  1  0  0  0
 21 22  1  0  0  0
 21 23  1  0  0  0
 23 51  1  0  0  0
 23 52  1  0  0  0
 24 53  1  0  0  0
 25 54  1  0  0  0
 26 55  1  0  0  0
 27 28  1  0  0  0
 28 29  2  0  0  0
 28 30  1  0  0  0
 30 31  1  0  0  0
 31 32  1  0  0  0
 31 36  1  0  0  0
 32 33  1  0  0  0
 33 34  2  0  0  0
 33 35  1  0  0  0
 35 56  1  0  0  0
 36 37  2  0  0  0
 36 38  1  0  0  0
 38 57  1  0  0  0
 39 40  1  0  0  0
 40 41  2  0  0  0
 40 42  1  0  0  0
 42 43  1  0  0  0
 43 44  1  0  0  0
 43 48  1  0  0  0
 44 45  1  0  0  0
 45 46  2  0  0  0
 45 47  1  0  0  0
 47 58  1  0  0  0
 48 49  2  0  0  0
 48 50  1  0  0  0
 50 59  1  0  0  0
M  END
>  <AUTHOR>
    GENERATED BY OPEN BABEL 2.4.1

>  <CHROM.1>
73.14508778,174.01563161,174.05193334,-153.94613134,148.05111632,-78.59375001
-143.81366682,-73.70056365,139.15416052,-80.31593373,-88.50638739,29.42455178
-172.06938257,166.58697504,-70.05873994,-126.12635100,-54.20405652,159.87582800
171.12915522,-93.26849378,66.21618534,173.94599027,78.01897221,33.49872127
136.01625913,103.50861124,-169.47601637,121.58112662,-35.39586488,8.87110215
173.08181846,2.77685441,111.43959481,-48.45218088,-164.22637921,131.39615375
-47.99975487,6.05693825,-3.42037393,-1.56729580,-3.49251900,7.08101760,-0.81695355
-0.62520131,-2.78093385

>  <COMPND>
    UNNAMED

>  <MASTER>
        0    0    0    0    0    0    0    0  109    0  109    0

>  <Name>
FB1.pdb

>  <RI>
0

>  <Rbt.Current_Directory>
/home/fc/tossine/F10/p3/2_clust03

>  <Rbt.Executable>
rbdock/0.1.0

>  <Rbt.Library>
librxdock.so/0.1.0

>  <Rbt.Parameter_File>
/cluster/rxdock/data/scripts/dock.prm

>  <Rbt.Receptor>
rx_2.prm

>  <SCORE>
23.7643

>  <SCORE.INTER>
8.36292

>  <SCORE.INTER.CONST>
1

>  <SCORE.INTER.POLAR>
-1.32768

>  <SCORE.INTER.REPUL>
1.08567

>  <SCORE.INTER.ROT>
32

>  <SCORE.INTER.VDW>
-29.9513

>  <SCORE.INTER.norm>
0.167258

>  <SCORE.INTRA>
15.05

>  <SCORE.INTRA.DIHEDRAL>
18.2163

>  <SCORE.INTRA.DIHEDRAL.0>
47.3121

>  <SCORE.INTRA.POLAR>
0.848486

>  <SCORE.INTRA.POLAR.0>
-1.47808

>  <SCORE.INTRA.REPUL>
0.00275903

>  <SCORE.INTRA.REPUL.0>
0

>  <SCORE.INTRA.VDW>
3.0432

>  <SCORE.INTRA.VDW.0>
-2.78316

>  <SCORE.INTRA.norm>
0.300999

>  <SCORE.RESTR>
0.35145

>  <SCORE.RESTR.CAVITY>
0.35145

>  <SCORE.RESTR.norm>
0.00702899

>  <SCORE.SYSTEM>
0

>  <SCORE.SYSTEM.CONST>
0

>  <SCORE.SYSTEM.DIHEDRAL>
0

>  <SCORE.SYSTEM.norm>
0

>  <SCORE.heavy>
50

>  <SCORE.norm>
0.475287

$$$$
