FB1.pdb
  RxDock  10102000053D
librxdock.so/0.1.0
 59 58  0  0  0  0  0  0  0  0999 V2000
   -0.1114   -8.5582   11.6454 C   0  0  0  0  0  0
    0.3241   -8.4224   10.1883 C   0  0  0  0  0  0
    1.1592   -9.6289    9.7288 C   0  0  0  0  0  0
    1.4596   -9.6293    8.2091 C   0  0  0  0  0  0
    0.2031   -9.8033    7.2864 C   0  0  0  0  0  0
   -0.4790  -11.1444    7.6428 C   0  0  0  0  0  0
   -0.8261   -8.5996    7.3845 C   0  0  0  0  0  0
   -0.5712   -7.3464    6.4196 C   0  0  0  0  0  0
   -1.5436   -6.8778    5.2521 C   0  0  0  0  0  0
   -1.1279   -5.4575    4.5233 C   0  0  0  0  0  0
   -1.4048   -4.3133    5.4971 C   0  0  0  0  0  0
    0.3717   -5.3540    3.9890 C   0  0  0  0  0  0
    1.1384   -3.9583    3.7013 C   0  0  0  0  0  0
    0.5277   -2.8358    2.7940 C   0  0  0  0  0  0
    0.1946   -1.4227    3.4584 C   0  0  0  0  0  0
   -0.3080   -0.1593    2.6547 C   0  0  0  0  0  0
    0.5783    0.4315    1.5265 C   0  0  0  0  0  0
    2.1044    0.6436    1.8660 C   0  0  0  0  0  0
    2.9956   -0.6027    1.7958 C   0  0  0  0  0  0
    4.4140   -0.5314    2.4293 C   0  0  0  0  0  0
    5.4053   -1.7241    2.2865 C   0  0  0  0  0  0
    5.5746   -2.3006    0.8878 C   0  0  0  0  0  0
    6.7138   -1.3941    2.8828 N   0  0  0  0  0  0
    5.0620    0.5780    1.7562 O   0  0  0  0  0  0
    2.6250    1.6264    0.9645 O   0  0  0  0  0  0
    1.2972   -3.3506    4.9944 O   0  0  0  0  0  0
   -0.4608   -6.1835    7.2845 O   0  0  0  0  0  0
    0.7522   -5.9472    7.8484 C   0  0  0  0  0  0
    1.5928   -6.7822    8.1233 O   0  0  0  0  0  0
    0.9312   -4.4605    7.9867 C   0  0  0  0  0  0
    2.4053   -4.0558    8.1477 C   0  0  0  0  0  0
    2.6203   -2.5442    7.9990 C   0  0  0  0  0  0
    3.7396   -2.2456    7.0287 C   0  0  0  0  0  0
    3.5580   -1.9701    5.8477 O   0  0  0  0  0  0
    4.9589   -2.3087    7.5837 O   0  0  0  0  0  0
    2.8157   -4.5088    9.5556 C   0  0  0  0  0  0
    2.0713   -5.1279   10.3005 O   0  0  0  0  0  0
    4.0462   -4.1257    9.9231 O   0  0  0  0  0  0
   -2.2257   -9.0840    7.3058 O   0  0  0  0  0  0
   -3.1261   -8.6567    8.2675 C   0  0  0  0  0  0
   -2.9263   -7.7350    9.0478 O   0  0  0  0  0  0
   -4.4256   -9.4725    8.2542 C   0  0  0  0  0  0
   -5.4826   -9.0454    7.1889 C   0  0  0  0  0  0
   -5.6332   -9.9175    5.9291 C   0  0  0  0  0  0
   -6.2871  -11.2404    6.2063 C   0  0  0  0  0  0
   -7.2583  -11.6938    5.6166 O   0  0  0  0  0  0
   -5.6748  -11.9198    7.1881 O   0  0  0  0  0  0
   -6.8913   -8.8094    7.7475 C   0  0  0  0  0  0
   -7.1125   -8.6368    8.9299 O   0  0  0  0  0  0
   -7.8694   -8.6977    6.8244 O   0  0  0  0  0  0
    7.3546   -2.1724    2.7338 H   0  0  0  0  0  0
    6.6043   -1.3336    3.8976 H   0  0  0  0  0  0
    5.9467    0.6377    2.1746 H   0  0  0  0  0  0
    3.5742    1.7413    1.1548 H   0  0  0  0  0  0
    1.9525   -2.6375    4.9131 H   0  0  0  0  0  0
    5.6975   -2.0573    6.9965 H   0  0  0  0  0  0
    4.5461   -3.6302    9.2279 H   0  0  0  0  0  0
   -6.1261  -12.7878    7.2534 H   0  0  0  0  0  0
   -8.7625   -8.4949    7.1816 H   0  0  0  0  0  0
  1  2  1  0  0  0
  2  3  1  0  0  0
  3  4  1  0  0  0
  4  5  1  0  0  0
  5  6  1  0  0  0
  5  7  1  0  0  0
  7  8  1  0  0  0
  7 39  1  0  0  0
  8  9  1  0  0  0
  8 27  1  0  0  0
  9 10  1  0  0  0
 10 11  1  0  0  0
 10 12  1  0  0  0
 12 13  1  0  0  0
 13 14  1  0  0  0
 13 26  1  0  0  0
 14 15  1  0  0  0
 15 16  1  0  0  0
 16 17  1  0  0  0
 17 18  1  0  0  0
 18 19  1  0  0  0
 18 25  1  0  0  0
 19 20  1  0  0  0
 20 21  1  0  0  0
 20 24  1  0  0  0
 21 22  1  0  0  0
 21 23  1  0  0  0
 23 51  1  0  0  0
 23 52  1  0  0  0
 24 53  1  0  0  0
 25 54  1  0  0  0
 26 55  1  0  0  0
 27 28  1  0  0  0
 28 29  2  0  0  0
 28 30  1  0  0  0
 30 31  1  0  0  0
 31 32  1  0  0  0
 31 36  1  0  0  0
 32 33  1  0  0  0
 33 34  2  0  0  0
 33 35  1  0  0  0
 35 56  1  0  0  0
 36 37  2  0  0  0
 36 38  1  0  0  0
 38 57  1  0  0  0
 39 40  1  0  0  0
 40 41  2  0  0  0
 40 42  1  0  0  0
 42 43  1  0  0  0
 43 44  1  0  0  0
 43 48  1  0  0  0
 44 45  1  0  0  0
 45 46  2  0  0  0
 45 47  1  0  0  0
 47 58  1  0  0  0
 48 49  2  0  0  0
 48 50  1  0  0  0
 50 59  1  0  0  0
M  END
>  <AUTHOR>
    GENERATED BY OPEN BABEL 2.4.1

>  <CHROM.1>
172.12294359,-65.83698737,-58.96174006,87.14357484,115.52624529,129.96235616
173.36027102,83.36832015,-71.60147189,-158.90400449,-52.38639942,116.90409124
165.00223389,174.65072219,-59.78502728,-47.06838754,79.78168941,-166.04539873
-178.39939464,-174.96824506,47.97225626,178.43772152,-177.18842895,-28.57550829
-160.20689679,168.18598684,-130.26685966,3.56733971,96.97758117,-175.76669807
-2.24431201,13.11260768,-82.10837068,103.61608367,71.65560753,17.53845943
127.40548082,-176.01748795,-176.62140593,0.02348305,-5.47748236,6.15855269
-2.34732891,-0.45870627,-0.88196362

>  <COMPND>
    UNNAMED

>  <MASTER>
        0    0    0    0    0    0    0    0  109    0  109    0

>  <Name>
FB1.pdb

>  <RI>
0

>  <Rbt.Current_Directory>
/home/fc/tossine/F10/p3/2_clust03

>  <Rbt.Executable>
rbdock/0.1.0

>  <Rbt.Library>
librxdock.so/0.1.0

>  <Rbt.Parameter_File>
/cluster/rxdock/data/scripts/dock.prm

>  <Rbt.Receptor>
rx_1.prm

>  <SCORE>
2.51342

>  <SCORE.INTER>
1.16335

>  <SCORE.INTER.CONST>
1

>  <SCORE.INTER.POLAR>
-1.03536

>  <SCORE.INTER.REPUL>
0.100008

>  <SCORE.INTER.ROT>
32

>  <SCORE.INTER.VDW>
-33.2165

>  <SCORE.INTER.norm>
0.0232671

>  <SCORE.INTRA>
1.31893

>  <SCORE.INTRA.DIHEDRAL>
9.03565

>  <SCORE.INTRA.DIHEDRAL.0>
47.3121

>  <SCORE.INTRA.POLAR>
-1.1534

>  <SCORE.INTRA.POLAR.0>
-1.47808

>  <SCORE.INTRA.REPUL>
0

>  <SCORE.INTRA.REPUL.0>
0

>  <SCORE.INTRA.VDW>
0.722681

>  <SCORE.INTRA.VDW.0>
-2.78316

>  <SCORE.INTRA.norm>
0.0263787

>  <SCORE.RESTR>
0.0311348

>  <SCORE.RESTR.CAVITY>
0.0311348

>  <SCORE.RESTR.norm>
0.000622696

>  <SCORE.SYSTEM>
0

>  <SCORE.SYSTEM.CONST>
0

>  <SCORE.SYSTEM.DIHEDRAL>
0

>  <SCORE.SYSTEM.norm>
0

>  <SCORE.heavy>
50

>  <SCORE.norm>
0.0502684

$$$$
