FB1.pdb
  RxDock  10102001043D
librxdock.so/0.1.0
 59 58  0  0  0  0  0  0  0  0999 V2000
    2.2266   -4.8619    8.9722 C   0  0  0  0  0  0
    1.4634   -6.1821    8.8949 C   0  0  0  0  0  0
    2.2447   -7.2461    8.1064 C   0  0  0  0  0  0
    1.4185   -8.5211    7.8040 C   0  0  0  0  0  0
    0.3160   -8.3490    6.7015 C   0  0  0  0  0  0
    0.0027   -9.7413    6.1066 C   0  0  0  0  0  0
   -1.0053   -7.6479    7.2314 C   0  0  0  0  0  0
   -1.2244   -6.1133    6.8275 C   0  0  0  0  0  0
   -1.1562   -4.8837    7.8334 C   0  0  0  0  0  0
   -1.9380   -3.5220    7.3276 C   0  0  0  0  0  0
   -3.2921   -3.4505    8.0314 C   0  0  0  0  0  0
   -1.1565   -2.1462    7.5302 C   0  0  0  0  0  0
    0.1636   -1.7209    6.6964 C   0  0  0  0  0  0
    0.8788   -0.3416    6.9018 C   0  0  0  0  0  0
    2.2402   -0.0696    6.1132 C   0  0  0  0  0  0
    2.9239    1.3482    5.9833 C   0  0  0  0  0  0
    4.1858    1.5100    5.0952 C   0  0  0  0  0  0
    4.2398    0.6394    3.7806 C   0  0  0  0  0  0
    5.3379    0.9991    2.7720 C   0  0  0  0  0  0
    5.7940   -0.0891    1.7591 C   0  0  0  0  0  0
    6.2829    0.3101    0.3354 C   0  0  0  0  0  0
    5.2093    0.7439   -0.6528 C   0  0  0  0  0  0
    7.3641    1.3109    0.4125 N   0  0  0  0  0  0
    6.9401   -0.7184    2.3870 O   0  0  0  0  0  0
    4.4055   -0.7300    4.1642 O   0  0  0  0  0  0
    1.1501   -2.7095    7.0368 O   0  0  0  0  0  0
   -0.2208   -5.8107    5.8207 O   0  0  0  0  0  0
   -0.5696   -4.9298    4.8473 C   0  0  0  0  0  0
   -1.6108   -4.3043    4.7824 O   0  0  0  0  0  0
    0.5934   -4.7748    3.9066 C   0  0  0  0  0  0
    0.4807   -3.5168    3.0308 C   0  0  0  0  0  0
    1.1772   -2.3007    3.6548 C   0  0  0  0  0  0
    0.8450   -1.0350    2.8992 C   0  0  0  0  0  0
    1.6612   -0.4101    2.2306 O   0  0  0  0  0  0
   -0.4354   -0.6568    3.0272 O   0  0  0  0  0  0
    1.1442   -3.8731    1.6933 C   0  0  0  0  0  0
    2.1680   -3.3397    1.2937 O   0  0  0  0  0  0
    0.4795   -4.7865    0.9722 O   0  0  0  0  0  0
   -2.2027   -8.4738    6.9416 O   0  0  0  0  0  0
   -3.2875   -8.3851    7.7981 C   0  0  0  0  0  0
   -3.2885   -7.7756    8.8596 O   0  0  0  0  0  0
   -4.5122   -9.1434    7.2695 C   0  0  0  0  0  0
   -5.5635   -9.5642    8.3428 C   0  0  0  0  0  0
   -6.4731   -8.4707    8.9321 C   0  0  0  0  0  0
   -7.4705   -7.9412    7.9426 C   0  0  0  0  0  0
   -7.3164   -6.9585    7.2304 O   0  0  0  0  0  0
   -8.5871   -8.6835    7.8922 O   0  0  0  0  0  0
   -6.4686  -10.7301    7.9261 C   0  0  0  0  0  0
   -6.8031  -10.9274    6.7746 O   0  0  0  0  0  0
   -6.7888  -11.5957    8.9107 O   0  0  0  0  0  0
    8.1222    0.9403    0.9838 H   0  0  0  0  0  0
    7.0199    2.1246    0.9272 H   0  0  0  0  0  0
    7.3117   -1.3027    1.6928 H   0  0  0  0  0  0
    3.5265   -1.0954    4.3748 H   0  0  0  0  0  0
    1.1630   -3.3771    6.3306 H   0  0  0  0  0  0
   -0.9348   -1.1091    3.7340 H   0  0  0  0  0  0
   -0.0750   -5.4070    1.5073 H   0  0  0  0  0  0
   -8.4956   -9.3762    8.5799 H   0  0  0  0  0  0
   -6.4177  -11.3810    9.7953 H   0  0  0  0  0  0
  1  2  1  0  0  0
  2  3  1  0  0  0
  3  4  1  0  0  0
  4  5  1  0  0  0
  5  6  1  0  0  0
  5  7  1  0  0  0
  7  8  1  0  0  0
  7 39  1  0  0  0
  8  9  1  0  0  0
  8 27  1  0  0  0
  9 10  1  0  0  0
 10 11  1  0  0  0
 10 12  1  0  0  0
 12 13  1  0  0  0
 13 14  1  0  0  0
 13 26  1  0  0  0
 14 15  1  0  0  0
 15 16  1  0  0  0
 16 17  1  0  0  0
 17 18  1  0  0  0
 18 19  1  0  0  0
 18 25  1  0  0  0
 19 20  1  0  0  0
 20 21  1  0  0  0
 20 24  1  0  0  0
 21 22  1  0  0  0
 21 23  1  0  0  0
 23 51  1  0  0  0
 23 52  1  0  0  0
 24 53  1  0  0  0
 25 54  1  0  0  0
 26 55  1  0  0  0
 27 28  1  0  0  0
 28 29  2  0  0  0
 28 30  1  0  0  0
 30 31  1  0  0  0
 31 32  1  0  0  0
 31 36  1  0  0  0
 32 33  1  0  0  0
 33 34  2  0  0  0
 33 35  1  0  0  0
 35 56  1  0  0  0
 36 37  2  0  0  0
 36 38  1  0  0  0
 38 57  1  0  0  0
 39 40  1  0  0  0
 40 41  2  0  0  0
 40 42  1  0  0  0
 42 43  1  0  0  0
 43 44  1  0  0  0
 43 48  1  0  0  0
 44 45  1  0  0  0
 45 46  2  0  0  0
 45 47  1  0  0  0
 47 58  1  0  0  0
 48 49  2  0  0  0
 48 50  1  0  0  0
 50 59  1  0  0  0
M  END
>  <AUTHOR>
    GENERATED BY OPEN BABEL 2.4.1

>  <CHROM.1>
-170.61349292,73.16783301,156.91445458,103.99339811,-110.59142658,150.68336575
-158.44956369,146.10985694,100.39631241,69.61247263,178.35941340,175.17864638
97.82296706,167.28777734,-175.07741102,35.65105616,168.23797833,157.43234636
83.63093107,148.28923092,-74.22807656,-171.34309996,56.37035611,4.97349444
-162.74305257,92.08188353,-170.01399682,-114.36324612,-111.50912693,13.24505419
-26.94578393,-7.78439504,157.68755687,74.29463609,69.51190433,-31.85648667
-93.48482010,3.79193393,0.78969723,-0.15714547,-4.40674488,5.51845671,-0.61901805
-0.59192654,-3.02001236

>  <COMPND>
    UNNAMED

>  <MASTER>
        0    0    0    0    0    0    0    0  109    0  109    0

>  <Name>
FB1.pdb

>  <RI>
0

>  <Rbt.Current_Directory>
/home/fc/tossine/F10/p3/2_clust03

>  <Rbt.Executable>
rbdock/0.1.0

>  <Rbt.Library>
librxdock.so/0.1.0

>  <Rbt.Parameter_File>
/cluster/rxdock/data/scripts/dock.prm

>  <Rbt.Receptor>
rx_2.prm

>  <SCORE>
15.1104

>  <SCORE.INTER>
2.04477

>  <SCORE.INTER.CONST>
1

>  <SCORE.INTER.POLAR>
-2.37186

>  <SCORE.INTER.REPUL>
0.392999

>  <SCORE.INTER.ROT>
32

>  <SCORE.INTER.VDW>
-29.2559

>  <SCORE.INTER.norm>
0.0408953

>  <SCORE.INTRA>
11.0301

>  <SCORE.INTRA.DIHEDRAL>
16.7608

>  <SCORE.INTRA.DIHEDRAL.0>
47.3121

>  <SCORE.INTRA.POLAR>
1.47808

>  <SCORE.INTRA.POLAR.0>
-1.47808

>  <SCORE.INTRA.REPUL>
0

>  <SCORE.INTRA.REPUL.0>
0

>  <SCORE.INTRA.VDW>
-2.3758

>  <SCORE.INTRA.VDW.0>
-2.78316

>  <SCORE.INTRA.norm>
0.220601

>  <SCORE.RESTR>
2.03559

>  <SCORE.RESTR.CAVITY>
2.03559

>  <SCORE.RESTR.norm>
0.0407118

>  <SCORE.SYSTEM>
0

>  <SCORE.SYSTEM.CONST>
0

>  <SCORE.SYSTEM.DIHEDRAL>
0

>  <SCORE.SYSTEM.norm>
0

>  <SCORE.heavy>
50

>  <SCORE.norm>
0.302208

$$$$
