FB1.pdb
  RxDock  10102001473D
librxdock.so/0.1.0
 59 58  0  0  0  0  0  0  0  0999 V2000
   -6.1344   -3.3111    8.8336 C   0  0  0  0  0  0
   -7.4369   -4.0163    8.4630 C   0  0  0  0  0  0
   -7.1790   -5.3121    7.6764 C   0  0  0  0  0  0
   -6.7126   -6.4918    8.5656 C   0  0  0  0  0  0
   -5.2339   -6.3892    9.0786 C   0  0  0  0  0  0
   -5.0590   -7.3759   10.2561 C   0  0  0  0  0  0
   -4.1518   -6.6562    7.9490 C   0  0  0  0  0  0
   -2.6857   -6.0585    8.1928 C   0  0  0  0  0  0
   -1.3292   -6.8757    8.0508 C   0  0  0  0  0  0
    0.0428   -5.9597    8.0542 C   0  0  0  0  0  0
    0.6489   -5.9991    9.4561 C   0  0  0  0  0  0
    1.1541   -6.3540    6.9798 C   0  0  0  0  0  0
    1.0313   -6.0527    5.3946 C   0  0  0  0  0  0
    0.9731   -4.5965    4.8182 C   0  0  0  0  0  0
    1.3144   -4.3792    3.2737 C   0  0  0  0  0  0
    2.3956   -3.3604    2.7374 C   0  0  0  0  0  0
    3.6862   -3.1109    3.5616 C   0  0  0  0  0  0
    4.0451   -1.6062    3.8723 C   0  0  0  0  0  0
    2.8607   -0.6561    4.0892 C   0  0  0  0  0  0
    1.9704   -0.2966    2.8659 C   0  0  0  0  0  0
    0.4190   -0.2643    2.9985 C   0  0  0  0  0  0
   -0.3644   -1.0965    1.9930 C   0  0  0  0  0  0
    0.0029   -0.5762    4.3791 N   0  0  0  0  0  0
    2.3464    1.0620    2.5243 O   0  0  0  0  0  0
    4.8684   -1.5813    5.0433 O   0  0  0  0  0  0
    2.2087   -6.6391    4.8147 O   0  0  0  0  0  0
   -2.5381   -4.9517    7.2623 O   0  0  0  0  0  0
   -1.7702   -3.9059    7.6645 C   0  0  0  0  0  0
   -1.4949   -3.6153    8.8130 O   0  0  0  0  0  0
   -1.2266   -3.2172    6.4431 C   0  0  0  0  0  0
   -0.7926   -1.7700    6.7255 C   0  0  0  0  0  0
   -1.7781   -1.0271    7.6367 C   0  0  0  0  0  0
   -1.4950    0.4572    7.6503 C   0  0  0  0  0  0
   -0.8586    1.0344    6.7754 O   0  0  0  0  0  0
   -2.0098    1.0896    8.7152 O   0  0  0  0  0  0
    0.5805   -1.8663    7.4047 C   0  0  0  0  0  0
    1.0187   -2.9033    7.8790 O   0  0  0  0  0  0
    1.2430   -0.7038    7.4800 O   0  0  0  0  0  0
   -4.1104   -8.0910    7.5756 O   0  0  0  0  0  0
   -5.0043   -8.5499    6.6224 C   0  0  0  0  0  0
   -5.0384   -8.1695    5.4595 O   0  0  0  0  0  0
   -5.9659   -9.6054    7.1842 C   0  0  0  0  0  0
   -5.5576  -11.0915    6.9411 C   0  0  0  0  0  0
   -4.1889  -11.5610    7.4671 C   0  0  0  0  0  0
   -3.9421  -11.1657    8.8945 C   0  0  0  0  0  0
   -3.8321  -10.0199    9.3088 O   0  0  0  0  0  0
   -3.8680  -12.2249    9.7148 O   0  0  0  0  0  0
   -6.5969  -12.1217    7.4004 C   0  0  0  0  0  0
   -7.5390  -11.8365    8.1130 O   0  0  0  0  0  0
   -6.4609  -13.3566    6.8734 O   0  0  0  0  0  0
   -0.8884   -1.0697    4.3559 H   0  0  0  0  0  0
   -0.1940    0.3006    4.8669 H   0  0  0  0  0  0
    2.0626    1.5977    3.2950 H   0  0  0  0  0  0
    4.5454   -2.2666    5.6569 H   0  0  0  0  0  0
    2.9798   -6.3218    5.3140 H   0  0  0  0  0  0
   -1.8955    2.0593    8.7193 H   0  0  0  0  0  0
    2.1265   -0.7632    7.9212 H   0  0  0  0  0  0
   -3.9602  -13.0230    9.1527 H   0  0  0  0  0  0
   -5.8033  -13.4326    6.1468 H   0  0  0  0  0  0
  1  2  1  0  0  0
  2  3  1  0  0  0
  3  4  1  0  0  0
  4  5  1  0  0  0
  5  6  1  0  0  0
  5  7  1  0  0  0
  7  8  1  0  0  0
  7 39  1  0  0  0
  8  9  1  0  0  0
  8 27  1  0  0  0
  9 10  1  0  0  0
 10 11  1  0  0  0
 10 12  1  0  0  0
 12 13  1  0  0  0
 13 14  1  0  0  0
 13 26  1  0  0  0
 14 15  1  0  0  0
 15 16  1  0  0  0
 16 17  1  0  0  0
 17 18  1  0  0  0
 18 19  1  0  0  0
 18 25  1  0  0  0
 19 20  1  0  0  0
 20 21  1  0  0  0
 20 24  1  0  0  0
 21 22  1  0  0  0
 21 23  1  0  0  0
 23 51  1  0  0  0
 23 52  1  0  0  0
 24 53  1  0  0  0
 25 54  1  0  0  0
 26 55  1  0  0  0
 27 28  1  0  0  0
 28 29  2  0  0  0
 28 30  1  0  0  0
 30 31  1  0  0  0
 31 32  1  0  0  0
 31 36  1  0  0  0
 32 33  1  0  0  0
 33 34  2  0  0  0
 33 35  1  0  0  0
 35 56  1  0  0  0
 36 37  2  0  0  0
 36 38  1  0  0  0
 38 57  1  0  0  0
 39 40  1  0  0  0
 40 41  2  0  0  0
 40 42  1  0  0  0
 42 43  1  0  0  0
 43 44  1  0  0  0
 43 48  1  0  0  0
 44 45  1  0  0  0
 45 46  2  0  0  0
 45 47  1  0  0  0
 47 58  1  0  0  0
 48 49  2  0  0  0
 48 50  1  0  0  0
 50 59  1  0  0  0
M  END
>  <AUTHOR>
    GENERATED BY OPEN BABEL 2.4.1

>  <CHROM.1>
76.97324010,-73.77292980,163.33666936,157.67998008,130.25264719,85.36508820
168.06391349,147.66291120,99.05194229,73.66527756,63.81059825,160.94453368
-50.68335886,-126.40809363,34.69785285,-128.41436391,33.88383689,-69.63980060
-37.38967803,136.84500935,-126.76652897,-65.38048018,-147.25772478,-21.53695823
158.94548811,-41.33794692,-167.53794311,-15.38698022,20.29778846,-175.95820162
179.73636591,62.60134831,-96.12003889,57.58357923,48.41367819,-13.08506705
-64.85097119,2.34005288,-9.26073865,-1.76179856,-5.04246347,6.72417640,2.32535391
-0.51198254,-3.06328315

>  <COMPND>
    UNNAMED

>  <MASTER>
        0    0    0    0    0    0    0    0  109    0  109    0

>  <Name>
FB1.pdb

>  <RI>
0

>  <Rbt.Current_Directory>
/home/fc/tossine/F10/p3/2_clust03

>  <Rbt.Executable>
rbdock/0.1.0

>  <Rbt.Library>
librxdock.so/0.1.0

>  <Rbt.Parameter_File>
/cluster/rxdock/data/scripts/dock.prm

>  <Rbt.Receptor>
rx_3.prm

>  <SCORE>
34.7026

>  <SCORE.INTER>
10.7723

>  <SCORE.INTER.CONST>
1

>  <SCORE.INTER.POLAR>
-2.67994

>  <SCORE.INTER.REPUL>
1.06795

>  <SCORE.INTER.ROT>
32

>  <SCORE.INTER.VDW>
-22.8556

>  <SCORE.INTER.norm>
0.215446

>  <SCORE.INTRA>
23.9285

>  <SCORE.INTRA.DIHEDRAL>
43.6606

>  <SCORE.INTRA.DIHEDRAL.0>
47.3121

>  <SCORE.INTRA.POLAR>
0.660705

>  <SCORE.INTRA.POLAR.0>
-1.47808

>  <SCORE.INTRA.REPUL>
0

>  <SCORE.INTRA.REPUL.0>
0

>  <SCORE.INTRA.VDW>
-0.148202

>  <SCORE.INTRA.VDW.0>
-2.78316

>  <SCORE.INTRA.norm>
0.47857

>  <SCORE.RESTR>
0.00173362

>  <SCORE.RESTR.CAVITY>
0.00173362

>  <SCORE.RESTR.norm>
3.46724e-05

>  <SCORE.SYSTEM>
0

>  <SCORE.SYSTEM.CONST>
0

>  <SCORE.SYSTEM.DIHEDRAL>
0

>  <SCORE.SYSTEM.norm>
0

>  <SCORE.heavy>
50

>  <SCORE.norm>
0.694051

$$$$
