FB1.pdb
  RxDock  10102002223D
librxdock.so/0.1.0
 59 58  0  0  0  0  0  0  0  0999 V2000
    1.5900   -5.3225    9.8826 C   0  0  0  0  0  0
    0.4700   -4.9201    8.9261 C   0  0  0  0  0  0
    0.9971   -4.6768    7.5023 C   0  0  0  0  0  0
    1.6407   -3.2806    7.3123 C   0  0  0  0  0  0
    0.6222   -2.0950    7.1800 C   0  0  0  0  0  0
    1.4161   -0.8053    6.8688 C   0  0  0  0  0  0
   -0.5031   -2.3456    6.0897 C   0  0  0  0  0  0
   -1.9302   -1.6661    6.3503 C   0  0  0  0  0  0
   -3.3269   -2.4245    6.3043 C   0  0  0  0  0  0
   -3.3037   -3.9688    6.8839 C   0  0  0  0  0  0
   -4.7414   -4.4035    7.1638 C   0  0  0  0  0  0
   -2.5863   -5.0551    5.9619 C   0  0  0  0  0  0
   -2.0097   -6.4668    6.5035 C   0  0  0  0  0  0
   -2.6846   -7.2550    7.6779 C   0  0  0  0  0  0
   -2.2445   -8.7697    7.9248 C   0  0  0  0  0  0
   -2.3809   -9.9209    6.8520 C   0  0  0  0  0  0
   -3.7441  -10.6393    6.6705 C   0  0  0  0  0  0
   -4.9072   -9.7925    6.0229 C   0  0  0  0  0  0
   -5.5214   -8.6970    6.9033 C   0  0  0  0  0  0
   -6.0517   -9.0929    8.3106 C   0  0  0  0  0  0
   -6.6680  -10.5019    8.5564 C   0  0  0  0  0  0
   -7.5767  -11.0442    7.4621 C   0  0  0  0  0  0
   -5.6203  -11.4803    8.9048 N   0  0  0  0  0  0
   -4.8858   -9.0377    9.1717 O   0  0  0  0  0  0
   -4.4000   -9.1857    4.8295 O   0  0  0  0  0  0
   -2.0746   -7.3510    5.3719 O   0  0  0  0  0  0
   -1.8723   -1.0994    7.6875 O   0  0  0  0  0  0
   -1.7179    0.2470    7.7807 C   0  0  0  0  0  0
   -1.0428    0.9460    7.0492 O   0  0  0  0  0  0
   -2.6056    0.7526    8.8842 C   0  0  0  0  0  0
   -1.8306    1.5450    9.9491 C   0  0  0  0  0  0
   -0.8593    2.5616    9.3354 C   0  0  0  0  0  0
    0.3858    2.7042   10.1797 C   0  0  0  0  0  0
    0.3873    2.6311   11.4038 O   0  0  0  0  0  0
    1.4975    2.9182    9.4605 O   0  0  0  0  0  0
   -2.8904    2.2717   10.7886 C   0  0  0  0  0  0
   -3.0508    3.4823   10.7574 O   0  0  0  0  0  0
   -3.5966    1.4724   11.6000 O   0  0  0  0  0  0
    0.0029   -2.0659    4.7239 O   0  0  0  0  0  0
    0.5934   -3.0991    4.0154 C   0  0  0  0  0  0
    0.7673   -4.2305    4.4491 O   0  0  0  0  0  0
    1.0149   -2.6724    2.6031 C   0  0  0  0  0  0
    2.3629   -1.8927    2.5051 C   0  0  0  0  0  0
    2.7156   -0.9124    3.6387 C   0  0  0  0  0  0
    3.7323    0.1145    3.2310 C   0  0  0  0  0  0
    4.8936   -0.1147    2.9221 O   0  0  0  0  0  0
    3.2285    1.3580    3.2167 O   0  0  0  0  0  0
    3.5947   -2.7759    2.2706 C   0  0  0  0  0  0
    4.3136   -2.6613    1.2975 O   0  0  0  0  0  0
    3.8971   -3.6267    3.2735 O   0  0  0  0  0  0
   -6.0609  -12.3489    9.2047 H   0  0  0  0  0  0
   -5.1180  -11.1416    9.7285 H   0  0  0  0  0  0
   -4.7282   -8.0803    9.3124 H   0  0  0  0  0  0
   -5.1569   -8.9577    4.2588 H   0  0  0  0  0  0
   -2.9929   -7.6562    5.2811 H   0  0  0  0  0  0
    1.3750    2.9096    8.4918 H   0  0  0  0  0  0
   -4.3475    1.9194   12.0638 H   0  0  0  0  0  0
    2.3250    1.2998    3.5930 H   0  0  0  0  0  0
    4.6378   -4.2461    3.0894 H   0  0  0  0  0  0
  1  2  1  0  0  0
  2  3  1  0  0  0
  3  4  1  0  0  0
  4  5  1  0  0  0
  5  6  1  0  0  0
  5  7  1  0  0  0
  7  8  1  0  0  0
  7 39  1  0  0  0
  8  9  1  0  0  0
  8 27  1  0  0  0
  9 10  1  0  0  0
 10 11  1  0  0  0
 10 12  1  0  0  0
 12 13  1  0  0  0
 13 14  1  0  0  0
 13 26  1  0  0  0
 14 15  1  0  0  0
 15 16  1  0  0  0
 16 17  1  0  0  0
 17 18  1  0  0  0
 18 19  1  0  0  0
 18 25  1  0  0  0
 19 20  1  0  0  0
 20 21  1  0  0  0
 20 24  1  0  0  0
 21 22  1  0  0  0
 21 23  1  0  0  0
 23 51  1  0  0  0
 23 52  1  0  0  0
 24 53  1  0  0  0
 25 54  1  0  0  0
 26 55  1  0  0  0
 27 28  1  0  0  0
 28 29  2  0  0  0
 28 30  1  0  0  0
 30 31  1  0  0  0
 31 32  1  0  0  0
 31 36  1  0  0  0
 32 33  1  0  0  0
 33 34  2  0  0  0
 33 35  1  0  0  0
 35 56  1  0  0  0
 36 37  2  0  0  0
 36 38  1  0  0  0
 38 57  1  0  0  0
 39 40  1  0  0  0
 40 41  2  0  0  0
 40 42  1  0  0  0
 42 43  1  0  0  0
 43 44  1  0  0  0
 43 48  1  0  0  0
 44 45  1  0  0  0
 45 46  2  0  0  0
 45 47  1  0  0  0
 47 58  1  0  0  0
 48 49  2  0  0  0
 48 50  1  0  0  0
 50 59  1  0  0  0
M  END
>  <AUTHOR>
    GENERATED BY OPEN BABEL 2.4.1

>  <CHROM.1>
-80.67207515,-76.57583592,-174.88526278,149.53545899,-128.86498060,89.66162718
36.35206970,103.75389996,163.25802650,158.62510858,33.17753789,166.73631777
-79.10822437,-59.24889708,-82.14964372,69.77171941,-72.27884872,-53.75104905
158.67189982,-32.71791039,-40.96152891,75.31809608,170.99432687,-36.73754465
124.35723063,46.04147035,-145.85656972,-110.10827424,-34.85627591,-2.98395546
-173.32083677,-2.25181372,80.50232889,-36.21553609,-159.32168903,120.07233616
-65.03023740,6.99930407,174.86015667,-1.12064234,-3.44995582,6.81648076,2.29986202
-0.73252415,-2.66677151

>  <COMPND>
    UNNAMED

>  <MASTER>
        0    0    0    0    0    0    0    0  109    0  109    0

>  <Name>
FB1.pdb

>  <RI>
0

>  <Rbt.Current_Directory>
/home/fc/tossine/F10/p3/2_clust03

>  <Rbt.Executable>
rbdock/0.1.0

>  <Rbt.Library>
librxdock.so/0.1.0

>  <Rbt.Parameter_File>
/cluster/rxdock/data/scripts/dock.prm

>  <Rbt.Receptor>
rx_4.prm

>  <SCORE>
5.13382

>  <SCORE.INTER>
-3.79387

>  <SCORE.INTER.CONST>
1

>  <SCORE.INTER.POLAR>
-3.58215

>  <SCORE.INTER.REPUL>
0.137993

>  <SCORE.INTER.ROT>
32

>  <SCORE.INTER.VDW>
-29.7045

>  <SCORE.INTER.norm>
-0.0758774

>  <SCORE.INTRA>
8.80796

>  <SCORE.INTRA.DIHEDRAL>
20.7747

>  <SCORE.INTRA.DIHEDRAL.0>
47.3121

>  <SCORE.INTRA.POLAR>
0.478077

>  <SCORE.INTRA.POLAR.0>
-1.47808

>  <SCORE.INTRA.REPUL>
0

>  <SCORE.INTRA.REPUL.0>
0

>  <SCORE.INTRA.VDW>
-3.20486

>  <SCORE.INTRA.VDW.0>
-2.78316

>  <SCORE.INTRA.norm>
0.176159

>  <SCORE.RESTR>
0.119726

>  <SCORE.RESTR.CAVITY>
0.119726

>  <SCORE.RESTR.norm>
0.00239452

>  <SCORE.SYSTEM>
0

>  <SCORE.SYSTEM.CONST>
0

>  <SCORE.SYSTEM.DIHEDRAL>
0

>  <SCORE.SYSTEM.norm>
0

>  <SCORE.heavy>
50

>  <SCORE.norm>
0.102676

$$$$
