FB1.pdb
  RxDock  10102000033D
librxdock.so/0.1.0
 59 58  0  0  0  0  0  0  0  0999 V2000
    5.5594  -10.9446   14.7099 C   0  0  0  0  0  0
    5.1653  -10.2163   13.4271 C   0  0  0  0  0  0
    3.6724  -10.3961   13.1060 C   0  0  0  0  0  0
    3.1739   -9.4853   11.9563 C   0  0  0  0  0  0
    1.6818   -9.7144   11.5303 C   0  0  0  0  0  0
    0.7743   -9.3629   12.7318 C   0  0  0  0  0  0
    1.2584   -8.8934   10.2401 C   0  0  0  0  0  0
    0.3129   -7.6205   10.4679 C   0  0  0  0  0  0
    0.8174   -6.1190   10.6065 C   0  0  0  0  0  0
    0.7856   -5.2389    9.2116 C   0  0  0  0  0  0
    1.4859   -6.0409    8.1159 C   0  0  0  0  0  0
   -0.6550   -4.7812    8.7017 C   0  0  0  0  0  0
   -0.8994   -3.7432    7.4846 C   0  0  0  0  0  0
   -0.1503   -2.3700    7.3883 C   0  0  0  0  0  0
    1.3765   -2.3713    6.9212 C   0  0  0  0  0  0
    2.2687   -1.0741    6.7964 C   0  0  0  0  0  0
    3.4403   -1.0468    5.7795 C   0  0  0  0  0  0
    3.0479   -1.0188    4.2516 C   0  0  0  0  0  0
    1.9512   -1.9975    3.8138 C   0  0  0  0  0  0
    1.0338   -1.5932    2.6250 C   0  0  0  0  0  0
    1.6474   -1.2215    1.2427 C   0  0  0  0  0  0
    0.7362   -0.4805    0.2742 C   0  0  0  0  0  0
    2.9286   -0.5097    1.4108 N   0  0  0  0  0  0
    0.2215   -2.7678    2.3715 O   0  0  0  0  0  0
    2.6266    0.3107    3.9281 O   0  0  0  0  0  0
   -0.5155   -4.4638    6.3015 O   0  0  0  0  0  0
   -0.6048   -7.5892    9.3412 O   0  0  0  0  0  0
   -1.5758   -8.5387    9.3099 C   0  0  0  0  0  0
   -1.9158   -9.2507   10.2356 O   0  0  0  0  0  0
   -2.2385   -8.4975    7.9606 C   0  0  0  0  0  0
   -3.5593   -7.7116    7.9754 C   0  0  0  0  0  0
   -3.3666   -6.2301    7.6273 C   0  0  0  0  0  0
   -4.6958   -5.5405    7.4244 C   0  0  0  0  0  0
   -5.6234   -5.6069    8.2237 O   0  0  0  0  0  0
   -4.7667   -4.8425    6.2813 O   0  0  0  0  0  0
   -4.4616   -8.3835    6.9311 C   0  0  0  0  0  0
   -5.5531   -8.8612    7.2012 O   0  0  0  0  0  0
   -3.9316   -8.4484    5.7020 O   0  0  0  0  0  0
    2.4382   -8.5649    9.4035 O   0  0  0  0  0  0
    3.1035   -9.5995    8.7670 C   0  0  0  0  0  0
    2.7811  -10.7786    8.8315 O   0  0  0  0  0  0
    4.3095   -9.1068    7.9563 C   0  0  0  0  0  0
    5.7019   -9.6292    8.4281 C   0  0  0  0  0  0
    6.2762  -10.8808    7.7396 C   0  0  0  0  0  0
    7.7342  -11.0927    8.0292 C   0  0  0  0  0  0
    8.3111  -10.7715    9.0590 O   0  0  0  0  0  0
    8.3730  -11.7089    7.0229 O   0  0  0  0  0  0
    6.8104   -8.5693    8.4387 C   0  0  0  0  0  0
    7.0853   -7.8917    7.4681 O   0  0  0  0  0  0
    7.3981   -8.3574    9.6350 O   0  0  0  0  0  0
    3.6468   -1.1762    1.6909 H   0  0  0  0  0  0
    2.8437    0.1336    2.2011 H   0  0  0  0  0  0
   -0.4641   -2.4622    1.7408 H   0  0  0  0  0  0
    1.8445    0.5224    4.4703 H   0  0  0  0  0  0
   -1.1195   -5.2183    6.1996 H   0  0  0  0  0  0
   -5.5871   -4.3276    6.1577 H   0  0  0  0  0  0
   -4.4913   -8.9233    5.0386 H   0  0  0  0  0  0
    9.2865  -11.8822    7.3339 H   0  0  0  0  0  0
    8.0282   -7.6036    9.6654 H   0  0  0  0  0  0
  1  2  1  0  0  0
  2  3  1  0  0  0
  3  4  1  0  0  0
  4  5  1  0  0  0
  5  6  1  0  0  0
  5  7  1  0  0  0
  7  8  1  0  0  0
  7 39  1  0  0  0
  8  9  1  0  0  0
  8 27  1  0  0  0
  9 10  1  0  0  0
 10 11  1  0  0  0
 10 12  1  0  0  0
 12 13  1  0  0  0
 13 14  1  0  0  0
 13 26  1  0  0  0
 14 15  1  0  0  0
 15 16  1  0  0  0
 16 17  1  0  0  0
 17 18  1  0  0  0
 18 19  1  0  0  0
 18 25  1  0  0  0
 19 20  1  0  0  0
 20 21  1  0  0  0
 20 24  1  0  0  0
 21 22  1  0  0  0
 21 23  1  0  0  0
 23 51  1  0  0  0
 23 52  1  0  0  0
 24 53  1  0  0  0
 25 54  1  0  0  0
 26 55  1  0  0  0
 27 28  1  0  0  0
 28 29  2  0  0  0
 28 30  1  0  0  0
 30 31  1  0  0  0
 31 32  1  0  0  0
 31 36  1  0  0  0
 32 33  1  0  0  0
 33 34  2  0  0  0
 33 35  1  0  0  0
 35 56  1  0  0  0
 36 37  2  0  0  0
 36 38  1  0  0  0
 38 57  1  0  0  0
 39 40  1  0  0  0
 40 41  2  0  0  0
 40 42  1  0  0  0
 42 43  1  0  0  0
 43 44  1  0  0  0
 43 48  1  0  0  0
 44 45  1  0  0  0
 45 46  2  0  0  0
 45 47  1  0  0  0
 47 58  1  0  0  0
 48 49  2  0  0  0
 48 50  1  0  0  0
 50 59  1  0  0  0
M  END
>  <AUTHOR>
    GENERATED BY OPEN BABEL 2.4.1

>  <CHROM.1>
170.16916731,175.77049584,63.31189552,-106.04999774,95.69582921,67.57934120
95.50701253,72.04308779,-50.40163665,170.95901213,-48.69322000,76.04504150
63.86160860,-179.05471954,-152.23341702,69.71836225,-45.49030190,149.71405837
-61.48245995,56.21955416,-163.59658787,169.84906513,74.28684208,14.78623630
-98.87221298,91.83593692,170.52224392,121.42053275,50.45153191,-175.25414921
176.93889093,0.77615484,116.72647944,94.64850599,166.04262785,-53.67972127
30.86442201,-174.56110024,-172.76707787,1.43606537,-6.57599758,7.76236560
1.07303303,-0.07412453,2.42749197

>  <COMPND>
    UNNAMED

>  <MASTER>
        0    0    0    0    0    0    0    0  109    0  109    0

>  <Name>
FB1.pdb

>  <RI>
0

>  <Rbt.Current_Directory>
/home/fc/tossine/F10/p3/2_clust03

>  <Rbt.Executable>
rbdock/0.1.0

>  <Rbt.Library>
librxdock.so/0.1.0

>  <Rbt.Parameter_File>
/cluster/rxdock/data/scripts/dock.prm

>  <Rbt.Receptor>
rx_1.prm

>  <SCORE>
5.95423

>  <SCORE.INTER>
2.08728

>  <SCORE.INTER.CONST>
1

>  <SCORE.INTER.POLAR>
-2.69571

>  <SCORE.INTER.REPUL>
0.0500243

>  <SCORE.INTER.ROT>
32

>  <SCORE.INTER.VDW>
-26.3974

>  <SCORE.INTER.norm>
0.0417456

>  <SCORE.INTRA>
2.71663

>  <SCORE.INTRA.DIHEDRAL>
1.46082

>  <SCORE.INTRA.DIHEDRAL.0>
47.3121

>  <SCORE.INTRA.POLAR>
0.541818

>  <SCORE.INTRA.POLAR.0>
-1.47808

>  <SCORE.INTRA.REPUL>
0.0130205

>  <SCORE.INTRA.REPUL.0>
0

>  <SCORE.INTRA.VDW>
0.078933

>  <SCORE.INTRA.VDW.0>
-2.78316

>  <SCORE.INTRA.norm>
0.0543325

>  <SCORE.RESTR>
1.15032

>  <SCORE.RESTR.CAVITY>
1.15032

>  <SCORE.RESTR.norm>
0.0230064

>  <SCORE.SYSTEM>
0

>  <SCORE.SYSTEM.CONST>
0

>  <SCORE.SYSTEM.DIHEDRAL>
0

>  <SCORE.SYSTEM.norm>
0

>  <SCORE.heavy>
50

>  <SCORE.norm>
0.119085

$$$$
