FB1.pdb
  RxDock  10102001473D
librxdock.so/0.1.0
 59 58  0  0  0  0  0  0  0  0999 V2000
    3.3645   -6.1197   10.5648 C   0  0  0  0  0  0
    2.8737   -4.8229    9.9255 C   0  0  0  0  0  0
    3.7631   -4.3975    8.7456 C   0  0  0  0  0  0
    2.9780   -4.1777    7.4283 C   0  0  0  0  0  0
    1.4858   -3.7313    7.6142 C   0  0  0  0  0  0
    1.4289   -2.1876    7.5470 C   0  0  0  0  0  0
    0.4942   -4.3821    6.5601 C   0  0  0  0  0  0
   -1.0005   -3.8075    6.5190 C   0  0  0  0  0  0
   -1.4804   -2.5670    5.6476 C   0  0  0  0  0  0
   -2.8369   -1.8076    6.1993 C   0  0  0  0  0  0
   -4.0154   -2.7726    6.0804 C   0  0  0  0  0  0
   -2.7652   -1.2315    7.6852 C   0  0  0  0  0  0
   -2.2641   -2.0842    8.9660 C   0  0  0  0  0  0
   -2.7074   -1.7409   10.4295 C   0  0  0  0  0  0
   -2.6329   -0.2189   10.9060 C   0  0  0  0  0  0
   -3.4934    0.9503   10.2838 C   0  0  0  0  0  0
   -4.8993    1.2572   10.8641 C   0  0  0  0  0  0
   -6.1119    0.4742   10.2272 C   0  0  0  0  0  0
   -6.1376   -1.0420   10.4573 C   0  0  0  0  0  0
   -5.8009   -1.9753    9.2599 C   0  0  0  0  0  0
   -6.1980   -3.4809    9.2940 C   0  0  0  0  0  0
   -7.6718   -3.7879    9.5198 C   0  0  0  0  0  0
   -5.6890   -4.1857    8.1021 N   0  0  0  0  0  0
   -6.5370   -1.4182    8.1412 O   0  0  0  0  0  0
   -7.3220    1.0340   10.7487 O   0  0  0  0  0  0
   -2.7439   -3.4190    8.7320 O   0  0  0  0  0  0
   -1.8458   -4.9048    6.0789 O   0  0  0  0  0  0
   -1.8377   -6.0321    6.8370 C   0  0  0  0  0  0
   -1.2660   -6.1799    7.9003 O   0  0  0  0  0  0
   -2.7422   -7.0458    6.1922 C   0  0  0  0  0  0
   -4.0362   -7.2742    6.9896 C   0  0  0  0  0  0
   -3.8928   -6.8883    8.4674 C   0  0  0  0  0  0
   -4.6931   -7.8151    9.3528 C   0  0  0  0  0  0
   -5.8210   -7.5583    9.7598 O   0  0  0  0  0  0
   -4.0511   -8.9537    9.6531 O   0  0  0  0  0  0
   -5.1046   -6.3992    6.3195 C   0  0  0  0  0  0
   -4.8418   -5.5504    5.4811 O   0  0  0  0  0  0
   -6.3506   -6.6083    6.7663 O   0  0  0  0  0  0
    1.1059   -4.4326    5.2098 O   0  0  0  0  0  0
    1.1147   -3.2770    4.4466 C   0  0  0  0  0  0
    1.3227   -2.1537    4.8863 O   0  0  0  0  0  0
    0.8323   -3.5542    2.9641 C   0  0  0  0  0  0
    1.5960   -2.6490    1.9483 C   0  0  0  0  0  0
    2.9800   -3.1159    1.4616 C   0  0  0  0  0  0
    4.0854   -2.7688    2.4166 C   0  0  0  0  0  0
    4.7235   -1.7251    2.4206 O   0  0  0  0  0  0
    4.3096   -3.7386    3.3164 O   0  0  0  0  0  0
    0.7857   -2.2615    0.7051 C   0  0  0  0  0  0
    0.2110   -3.0768    0.0110 O   0  0  0  0  0  0
    0.6594   -0.9359    0.4858 O   0  0  0  0  0  0
   -6.2650   -3.9407    7.2979 H   0  0  0  0  0  0
   -5.8306   -5.1901    8.2313 H   0  0  0  0  0  0
   -6.2507   -1.9494    7.3684 H   0  0  0  0  0  0
   -7.3195    0.9157   11.7164 H   0  0  0  0  0  0
   -3.7059   -3.3741    8.6013 H   0  0  0  0  0  0
   -4.6226   -9.6898    9.9446 H   0  0  0  0  0  0
   -6.4251   -7.3093    7.4604 H   0  0  0  0  0  0
    3.6653   -4.4528    3.1267 H   0  0  0  0  0  0
   -0.0812   -0.6771   -0.1064 H   0  0  0  0  0  0
  1  2  1  0  0  0
  2  3  1  0  0  0
  3  4  1  0  0  0
  4  5  1  0  0  0
  5  6  1  0  0  0
  5  7  1  0  0  0
  7  8  1  0  0  0
  7 39  1  0  0  0
  8  9  1  0  0  0
  8 27  1  0  0  0
  9 10  1  0  0  0
 10 11  1  0  0  0
 10 12  1  0  0  0
 12 13  1  0  0  0
 13 14  1  0  0  0
 13 26  1  0  0  0
 14 15  1  0  0  0
 15 16  1  0  0  0
 16 17  1  0  0  0
 17 18  1  0  0  0
 18 19  1  0  0  0
 18 25  1  0  0  0
 19 20  1  0  0  0
 20 21  1  0  0  0
 20 24  1  0  0  0
 21 22  1  0  0  0
 21 23  1  0  0  0
 23 51  1  0  0  0
 23 52  1  0  0  0
 24 53  1  0  0  0
 25 54  1  0  0  0
 26 55  1  0  0  0
 27 28  1  0  0  0
 28 29  2  0  0  0
 28 30  1  0  0  0
 30 31  1  0  0  0
 31 32  1  0  0  0
 31 36  1  0  0  0
 32 33  1  0  0  0
 33 34  2  0  0  0
 33 35  1  0  0  0
 35 56  1  0  0  0
 36 37  2  0  0  0
 36 38  1  0  0  0
 38 57  1  0  0  0
 39 40  1  0  0  0
 40 41  2  0  0  0
 40 42  1  0  0  0
 42 43  1  0  0  0
 43 44  1  0  0  0
 43 48  1  0  0  0
 44 45  1  0  0  0
 45 46  2  0  0  0
 45 47  1  0  0  0
 47 58  1  0  0  0
 48 49  2  0  0  0
 48 50  1  0  0  0
 50 59  1  0  0  0
M  END
>  <AUTHOR>
    GENERATED BY OPEN BABEL 2.4.1

>  <CHROM.1>
125.25733316,28.53250831,94.31552764,-170.37299105,87.79990537,-79.32506990
-156.62373337,58.69477388,-65.80929870,-49.79772593,-155.40648106,-47.09685032
-55.77976661,64.05133828,88.45864995,-89.26726138,66.30252186,-107.11496864
-60.95671695,-162.26424049,56.21069784,174.24743679,-75.40995809,5.62854238
-109.07375000,-22.76757824,-144.65910704,-11.13940721,-96.41963214,-159.55594552
-0.91303152,39.40205221,-144.80924550,89.33896325,-82.70568733,-51.55446204
-88.55887544,-0.72538585,-160.45217432,-1.81157432,-3.54131044,6.92738381
-0.03084400,-0.64422317,3.08809102

>  <COMPND>
    UNNAMED

>  <MASTER>
        0    0    0    0    0    0    0    0  109    0  109    0

>  <Name>
FB1.pdb

>  <RI>
0

>  <Rbt.Current_Directory>
/home/fc/tossine/F10/p3/2_clust03

>  <Rbt.Executable>
rbdock/0.1.0

>  <Rbt.Library>
librxdock.so/0.1.0

>  <Rbt.Parameter_File>
/cluster/rxdock/data/scripts/dock.prm

>  <Rbt.Receptor>
rx_3.prm

>  <SCORE>
24.6928

>  <SCORE.INTER>
7.6966

>  <SCORE.INTER.CONST>
1

>  <SCORE.INTER.POLAR>
-3.73416

>  <SCORE.INTER.REPUL>
1.62523

>  <SCORE.INTER.ROT>
32

>  <SCORE.INTER.VDW>
-25.1334

>  <SCORE.INTER.norm>
0.153932

>  <SCORE.INTRA>
16.2797

>  <SCORE.INTRA.DIHEDRAL>
27.7113

>  <SCORE.INTRA.DIHEDRAL.0>
47.3121

>  <SCORE.INTRA.POLAR>
0.408951

>  <SCORE.INTRA.POLAR.0>
-1.47808

>  <SCORE.INTRA.REPUL>
0

>  <SCORE.INTRA.REPUL.0>
0

>  <SCORE.INTRA.VDW>
1.03363

>  <SCORE.INTRA.VDW.0>
-2.78316

>  <SCORE.INTRA.norm>
0.325594

>  <SCORE.RESTR>
0.716485

>  <SCORE.RESTR.CAVITY>
0.716485

>  <SCORE.RESTR.norm>
0.0143297

>  <SCORE.SYSTEM>
0

>  <SCORE.SYSTEM.CONST>
0

>  <SCORE.SYSTEM.DIHEDRAL>
0

>  <SCORE.SYSTEM.norm>
0

>  <SCORE.heavy>
50

>  <SCORE.norm>
0.493856

$$$$
