FB1.pdb
  RxDock  10102002213D
librxdock.so/0.1.0
 59 58  0  0  0  0  0  0  0  0999 V2000
   -0.6791   -9.1031    8.5977 C   0  0  0  0  0  0
   -0.1391   -9.4948    7.2242 C   0  0  0  0  0  0
    1.1370   -8.7135    6.8701 C   0  0  0  0  0  0
    0.8612   -7.2714    6.3763 C   0  0  0  0  0  0
    0.2388   -6.3121    7.4500 C   0  0  0  0  0  0
    1.2548   -6.1512    8.6044 C   0  0  0  0  0  0
   -0.1857   -4.8989    6.8665 C   0  0  0  0  0  0
   -1.2813   -4.8957    5.6979 C   0  0  0  0  0  0
   -0.9854   -4.5846    4.1669 C   0  0  0  0  0  0
    0.4338   -5.1970    3.5904 C   0  0  0  0  0  0
    0.6512   -4.6665    2.1742 C   0  0  0  0  0  0
    1.7320   -4.9134    4.4730 C   0  0  0  0  0  0
    2.3798   -3.4464    4.6893 C   0  0  0  0  0  0
    2.6334   -2.4565    3.5011 C   0  0  0  0  0  0
    3.6850   -2.8775    2.3759 C   0  0  0  0  0  0
    4.6698   -1.8721    1.6590 C   0  0  0  0  0  0
    5.8972   -1.3218    2.4323 C   0  0  0  0  0  0
    6.2877    0.1820    2.1581 C   0  0  0  0  0  0
    6.5552    0.5586    0.6955 C   0  0  0  0  0  0
    7.8543    1.3459    0.3626 C   0  0  0  0  0  0
    7.9259    2.2580   -0.8976 C   0  0  0  0  0  0
    7.5375    1.6155   -2.2219 C   0  0  0  0  0  0
    7.1802    3.5125   -0.6814 N   0  0  0  0  0  0
    8.0383    2.2437    1.4869 O   0  0  0  0  0  0
    5.2310    1.0104    2.6550 O   0  0  0  0  0  0
    1.4621   -2.7618    5.5586 O   0  0  0  0  0  0
   -1.8686   -6.2252    5.6879 O   0  0  0  0  0  0
   -2.7604   -6.5130    6.6713 C   0  0  0  0  0  0
   -2.8971   -5.9087    7.7179 O   0  0  0  0  0  0
   -3.6291   -7.6499    6.2083 C   0  0  0  0  0  0
   -3.7185   -8.7835    7.2424 C   0  0  0  0  0  0
   -5.0030   -8.7175    8.0785 C   0  0  0  0  0  0
   -6.2113   -8.4775    7.2035 C   0  0  0  0  0  0
   -6.8365   -9.3751    6.6493 O   0  0  0  0  0  0
   -6.5399   -7.1821    7.0899 O   0  0  0  0  0  0
   -3.6812  -10.0910    6.4392 C   0  0  0  0  0  0
   -2.8291  -10.9508    6.6039 O   0  0  0  0  0  0
   -4.6350  -10.1926    5.5033 O   0  0  0  0  0  0
   -0.5331   -3.9528    7.9546 O   0  0  0  0  0  0
   -1.5347   -3.0241    7.7257 C   0  0  0  0  0  0
   -2.6605   -3.2974    7.3302 O   0  0  0  0  0  0
   -1.0803   -1.5895    8.0252 C   0  0  0  0  0  0
   -0.4999   -0.7960    6.8136 C   0  0  0  0  0  0
   -1.3137   -0.7737    5.5068 C   0  0  0  0  0  0
   -0.4787   -0.4514    4.3013 C   0  0  0  0  0  0
    0.7438   -0.4273    4.2658 O   0  0  0  0  0  0
   -1.2233   -0.1992    3.2139 O   0  0  0  0  0  0
   -0.1093    0.6533    7.1287 C   0  0  0  0  0  0
    1.0442    1.0341    7.1612 O   0  0  0  0  0  0
   -1.1394    1.5144    7.2649 O   0  0  0  0  0  0
    7.2260    4.0784   -1.5277 H   0  0  0  0  0  0
    7.6662    4.0629    0.0302 H   0  0  0  0  0  0
    7.2662    2.8469    1.4498 H   0  0  0  0  0  0
    4.5652    0.4350    3.0748 H   0  0  0  0  0  0
    1.5610   -3.1318    6.4518 H   0  0  0  0  0  0
   -5.9409   -6.5590    7.5441 H   0  0  0  0  0  0
   -4.6368  -11.0509    5.0112 H   0  0  0  0  0  0
   -0.5983   -0.0030    2.4843 H   0  0  0  0  0  0
   -2.0340    1.1133    7.1935 H   0  0  0  0  0  0
  1  2  1  0  0  0
  2  3  1  0  0  0
  3  4  1  0  0  0
  4  5  1  0  0  0
  5  6  1  0  0  0
  5  7  1  0  0  0
  7  8  1  0  0  0
  7 39  1  0  0  0
  8  9  1  0  0  0
  8 27  1  0  0  0
  9 10  1  0  0  0
 10 11  1  0  0  0
 10 12  1  0  0  0
 12 13  1  0  0  0
 13 14  1  0  0  0
 13 26  1  0  0  0
 14 15  1  0  0  0
 15 16  1  0  0  0
 16 17  1  0  0  0
 17 18  1  0  0  0
 18 19  1  0  0  0
 18 25  1  0  0  0
 19 20  1  0  0  0
 20 21  1  0  0  0
 20 24  1  0  0  0
 21 22  1  0  0  0
 21 23  1  0  0  0
 23 51  1  0  0  0
 23 52  1  0  0  0
 24 53  1  0  0  0
 25 54  1  0  0  0
 26 55  1  0  0  0
 27 28  1  0  0  0
 28 29  2  0  0  0
 28 30  1  0  0  0
 30 31  1  0  0  0
 31 32  1  0  0  0
 31 36  1  0  0  0
 32 33  1  0  0  0
 33 34  2  0  0  0
 33 35  1  0  0  0
 35 56  1  0  0  0
 36 37  2  0  0  0
 36 38  1  0  0  0
 38 57  1  0  0  0
 39 40  1  0  0  0
 40 41  2  0  0  0
 40 42  1  0  0  0
 42 43  1  0  0  0
 43 44  1  0  0  0
 43 48  1  0  0  0
 44 45  1  0  0  0
 45 46  2  0  0  0
 45 47  1  0  0  0
 47 58  1  0  0  0
 48 49  2  0  0  0
 48 50  1  0  0  0
 50 59  1  0  0  0
M  END
>  <AUTHOR>
    GENERATED BY OPEN BABEL 2.4.1

>  <CHROM.1>
-78.99597643,65.53543172,63.02332042,60.09548673,-107.38548312,-145.95785509
38.68261871,76.03210229,-172.94185080,-67.35690280,-47.05643048,-64.15653783
73.49256035,-142.87265905,73.77254441,-142.75961001,-56.01119893,-130.86778545
2.84920927,-154.16969485,-52.76335084,-64.57015276,-178.69508881,-17.90665004
129.74625147,99.17392473,45.96771460,121.34992874,86.27452043,2.83788678
-177.48705817,53.05735271,92.41466832,49.86844896,-158.48211498,110.37654643
12.06613467,-179.88187769,3.01116979,0.41489322,-3.75003128,5.06102651,-2.49854340
0.61918197,0.09891505

>  <COMPND>
    UNNAMED

>  <MASTER>
        0    0    0    0    0    0    0    0  109    0  109    0

>  <Name>
FB1.pdb

>  <RI>
0

>  <Rbt.Current_Directory>
/home/fc/tossine/F10/p3/2_clust03

>  <Rbt.Executable>
rbdock/0.1.0

>  <Rbt.Library>
librxdock.so/0.1.0

>  <Rbt.Parameter_File>
/cluster/rxdock/data/scripts/dock.prm

>  <Rbt.Receptor>
rx_4.prm

>  <SCORE>
16.8876

>  <SCORE.INTER>
-0.409764

>  <SCORE.INTER.CONST>
1

>  <SCORE.INTER.POLAR>
-2.39126

>  <SCORE.INTER.REPUL>
0.599723

>  <SCORE.INTER.ROT>
32

>  <SCORE.INTER.VDW>
-32.6781

>  <SCORE.INTER.norm>
-0.00819528

>  <SCORE.INTRA>
17.1916

>  <SCORE.INTRA.DIHEDRAL>
27.0583

>  <SCORE.INTRA.DIHEDRAL.0>
47.3121

>  <SCORE.INTRA.POLAR>
1.43674

>  <SCORE.INTRA.POLAR.0>
-1.47808

>  <SCORE.INTRA.REPUL>
0

>  <SCORE.INTRA.REPUL.0>
0

>  <SCORE.INTRA.VDW>
-1.22246

>  <SCORE.INTRA.VDW.0>
-2.78316

>  <SCORE.INTRA.norm>
0.343832

>  <SCORE.RESTR>
0.105732

>  <SCORE.RESTR.CAVITY>
0.105732

>  <SCORE.RESTR.norm>
0.00211464

>  <SCORE.SYSTEM>
0

>  <SCORE.SYSTEM.CONST>
0

>  <SCORE.SYSTEM.DIHEDRAL>
0

>  <SCORE.SYSTEM.norm>
0

>  <SCORE.heavy>
50

>  <SCORE.norm>
0.337751

$$$$
