FB1.pdb
  RxDock  10102001443D
librxdock.so/0.1.0
 59 58  0  0  0  0  0  0  0  0999 V2000
   -6.0348  -12.6639    7.4078 C   0  0  0  0  0  0
   -5.6973  -11.2142    7.0674 C   0  0  0  0  0  0
   -4.2353  -10.8760    7.4029 C   0  0  0  0  0  0
   -3.9364  -10.8683    8.9229 C   0  0  0  0  0  0
   -2.5752  -10.2012    9.3260 C   0  0  0  0  0  0
   -1.4285  -11.1592    8.9283 C   0  0  0  0  0  0
   -2.3609   -8.7641    8.6884 C   0  0  0  0  0  0
   -1.4851   -8.6876    7.3492 C   0  0  0  0  0  0
   -1.8226   -7.7835    6.0855 C   0  0  0  0  0  0
   -2.3100   -6.2468    6.4351 C   0  0  0  0  0  0
   -3.8328   -6.2369    6.5577 C   0  0  0  0  0  0
   -1.6644   -5.5827    7.7340 C   0  0  0  0  0  0
   -0.1243   -5.0964    7.8346 C   0  0  0  0  0  0
    0.2781   -3.5821    7.8676 C   0  0  0  0  0  0
    1.7745   -3.1874    7.4748 C   0  0  0  0  0  0
    2.1808   -1.8326    6.7719 C   0  0  0  0  0  0
    3.3657   -1.8162    5.7703 C   0  0  0  0  0  0
    3.6250   -0.4604    5.0063 C   0  0  0  0  0  0
    2.4704    0.0652    4.1443 C   0  0  0  0  0  0
    2.2245   -0.5960    2.7584 C   0  0  0  0  0  0
    1.0970   -0.0722    1.8205 C   0  0  0  0  0  0
    0.7943   -0.9144    0.5891 C   0  0  0  0  0  0
   -0.1341    0.2071    2.5839 N   0  0  0  0  0  0
    3.4558   -0.3781    2.0234 O   0  0  0  0  0  0
    3.9581    0.5372    5.9776 O   0  0  0  0  0  0
    0.3541   -5.6389    9.0769 O   0  0  0  0  0  0
   -0.1579   -8.2567    7.7557 O   0  0  0  0  0  0
    0.8674   -9.1178    7.5265 C   0  0  0  0  0  0
    0.8279  -10.1145    6.8306 O   0  0  0  0  0  0
    2.1005   -8.5791    8.1979 C   0  0  0  0  0  0
    2.3775   -9.2524    9.5516 C   0  0  0  0  0  0
    3.8768   -9.3701    9.8546 C   0  0  0  0  0  0
    4.5536  -10.3223    8.8962 C   0  0  0  0  0  0
    5.0198   -9.9792    7.8152 O   0  0  0  0  0  0
    4.5988  -11.5865    9.3418 O   0  0  0  0  0  0
    1.6956   -8.3721   10.6080 C   0  0  0  0  0  0
    1.9015   -7.1722   10.7101 O   0  0  0  0  0  0
    0.8890   -9.0380   11.4458 O   0  0  0  0  0  0
   -3.6491   -8.0421    8.5502 O   0  0  0  0  0  0
   -4.4315   -7.8680    9.6796 C   0  0  0  0  0  0
   -4.0873   -8.1614   10.8171 O   0  0  0  0  0  0
   -5.8006   -7.2571    9.3530 C   0  0  0  0  0  0
   -6.2658   -6.0982   10.2885 C   0  0  0  0  0  0
   -7.3325   -5.1235    9.7570 C   0  0  0  0  0  0
   -6.7758   -4.1101    8.7991 C   0  0  0  0  0  0
   -6.7596   -2.8990    8.9713 O   0  0  0  0  0  0
   -6.2583   -4.6752    7.6976 O   0  0  0  0  0  0
   -6.7175   -6.5473   11.6836 C   0  0  0  0  0  0
   -7.3253   -7.5811   11.8799 O   0  0  0  0  0  0
   -6.3025   -5.7694   12.7053 O   0  0  0  0  0  0
   -0.0155    1.0762    3.1028 H   0  0  0  0  0  0
   -0.2451   -0.5142    3.3001 H   0  0  0  0  0  0
    3.3834   -0.9650    1.2413 H   0  0  0  0  0  0
    4.1243    1.3754    5.5082 H   0  0  0  0  0  0
   -0.2789   -5.3981    9.7738 H   0  0  0  0  0  0
    4.9400  -12.2414    8.7029 H   0  0  0  0  0  0
    0.5040   -8.4853   12.1704 H   0  0  0  0  0  0
   -6.0031   -3.9420    7.0987 H   0  0  0  0  0  0
   -5.6496   -5.0747   12.4656 H   0  0  0  0  0  0
  1  2  1  0  0  0
  2  3  1  0  0  0
  3  4  1  0  0  0
  4  5  1  0  0  0
  5  6  1  0  0  0
  5  7  1  0  0  0
  7  8  1  0  0  0
  7 39  1  0  0  0
  8  9  1  0  0  0
  8 27  1  0  0  0
  9 10  1  0  0  0
 10 11  1  0  0  0
 10 12  1  0  0  0
 12 13  1  0  0  0
 13 14  1  0  0  0
 13 26  1  0  0  0
 14 15  1  0  0  0
 15 16  1  0  0  0
 16 17  1  0  0  0
 17 18  1  0  0  0
 18 19  1  0  0  0
 18 25  1  0  0  0
 19 20  1  0  0  0
 20 21  1  0  0  0
 20 24  1  0  0  0
 21 22  1  0  0  0
 21 23  1  0  0  0
 23 51  1  0  0  0
 23 52  1  0  0  0
 24 53  1  0  0  0
 25 54  1  0  0  0
 26 55  1  0  0  0
 27 28  1  0  0  0
 28 29  2  0  0  0
 28 30  1  0  0  0
 30 31  1  0  0  0
 31 32  1  0  0  0
 31 36  1  0  0  0
 32 33  1  0  0  0
 33 34  2  0  0  0
 33 35  1  0  0  0
 35 56  1  0  0  0
 36 37  2  0  0  0
 36 38  1  0  0  0
 38 57  1  0  0  0
 39 40  1  0  0  0
 40 41  2  0  0  0
 40 42  1  0  0  0
 42 43  1  0  0  0
 43 44  1  0  0  0
 43 48  1  0  0  0
 44 45  1  0  0  0
 45 46  2  0  0  0
 45 47  1  0  0  0
 47 58  1  0  0  0
 48 49  2  0  0  0
 48 50  1  0  0  0
 50 59  1  0  0  0
M  END
>  <AUTHOR>
    GENERATED BY OPEN BABEL 2.4.1

>  <CHROM.1>
-68.01159108,-165.92669658,-73.48015117,-96.96415230,138.37238712,55.72412729
43.39866253,117.61259942,-91.12456601,71.54575094,108.57234144,-159.63442501
-50.82887596,148.21323122,-146.49806937,174.37297830,-59.54182939,-77.56895393
179.66970836,-177.95874132,-170.84772025,167.28941168,75.51424633,12.52681830
99.43293397,146.95556313,-66.73135918,-53.75298221,88.26129133,173.46124682
175.45648209,6.87488451,-134.65935146,158.48179462,-77.54427256,-36.74359830
-117.13957030,174.56517279,-8.49569085,-1.08531950,-6.34003250,7.80942139
2.22590169,-0.20234760,2.67622236

>  <COMPND>
    UNNAMED

>  <MASTER>
        0    0    0    0    0    0    0    0  109    0  109    0

>  <Name>
FB1.pdb

>  <RI>
0

>  <Rbt.Current_Directory>
/home/fc/tossine/F10/p3/2_clust03

>  <Rbt.Executable>
rbdock/0.1.0

>  <Rbt.Library>
librxdock.so/0.1.0

>  <Rbt.Parameter_File>
/cluster/rxdock/data/scripts/dock.prm

>  <Rbt.Receptor>
rx_3.prm

>  <SCORE>
10.615

>  <SCORE.INTER>
1.34173

>  <SCORE.INTER.CONST>
1

>  <SCORE.INTER.POLAR>
-2.10456

>  <SCORE.INTER.REPUL>
0.106622

>  <SCORE.INTER.ROT>
32

>  <SCORE.INTER.VDW>
-29.4359

>  <SCORE.INTER.norm>
0.0268346

>  <SCORE.INTRA>
9.27324

>  <SCORE.INTRA.DIHEDRAL>
14.8671

>  <SCORE.INTRA.DIHEDRAL.0>
47.3121

>  <SCORE.INTRA.POLAR>
1.47808

>  <SCORE.INTRA.POLAR.0>
-1.47808

>  <SCORE.INTRA.REPUL>
0.0159572

>  <SCORE.INTRA.REPUL.0>
0

>  <SCORE.INTRA.VDW>
-3.26556

>  <SCORE.INTRA.VDW.0>
-2.78316

>  <SCORE.INTRA.norm>
0.185465

>  <SCORE.RESTR>
0

>  <SCORE.RESTR.CAVITY>
0

>  <SCORE.RESTR.norm>
0

>  <SCORE.SYSTEM>
0

>  <SCORE.SYSTEM.CONST>
0

>  <SCORE.SYSTEM.DIHEDRAL>
0

>  <SCORE.SYSTEM.norm>
0

>  <SCORE.heavy>
50

>  <SCORE.norm>
0.212299

$$$$
