FB1.pdb
  RxDock  10102001033D
librxdock.so/0.1.0
 59 58  0  0  0  0  0  0  0  0999 V2000
    3.4261    1.5675    5.5973 C   0  0  0  0  0  0
    2.9265    0.1310    5.4627 C   0  0  0  0  0  0
    4.0210   -0.8044    4.9229 C   0  0  0  0  0  0
    3.6539   -2.3061    5.0215 C   0  0  0  0  0  0
    3.7717   -2.9230    6.4589 C   0  0  0  0  0  0
    4.5197   -1.9139    7.3605 C   0  0  0  0  0  0
    2.3730   -3.3224    7.0930 C   0  0  0  0  0  0
    1.4268   -4.2766    6.2211 C   0  0  0  0  0  0
    1.3418   -5.8580    6.3630 C   0  0  0  0  0  0
    0.4305   -6.6153    5.2153 C   0  0  0  0  0  0
    0.3065   -8.0912    5.5903 C   0  0  0  0  0  0
   -1.0206   -6.0059    4.9548 C   0  0  0  0  0  0
   -2.3418   -6.4172    5.7937 C   0  0  0  0  0  0
   -2.3699   -6.4363    7.3606 C   0  0  0  0  0  0
   -3.6464   -7.0617    8.0876 C   0  0  0  0  0  0
   -4.2258   -8.4996    7.7851 C   0  0  0  0  0  0
   -5.3528   -9.0743    8.6833 C   0  0  0  0  0  0
   -6.7911   -8.4540    8.4943 C   0  0  0  0  0  0
   -6.9349   -6.9613    8.8162 C   0  0  0  0  0  0
   -6.8828   -6.5200   10.3065 C   0  0  0  0  0  0
   -7.9523   -7.0258   11.3194 C   0  0  0  0  0  0
   -8.0187   -8.5306   11.5396 C   0  0  0  0  0  0
   -7.8397   -6.3093   12.6040 N   0  0  0  0  0  0
   -5.6223   -7.0407   10.8002 O   0  0  0  0  0  0
   -7.1887   -8.6665    7.1354 O   0  0  0  0  0  0
   -3.3369   -5.4524    5.4124 O   0  0  0  0  0  0
    0.0662   -3.8209    6.4523 O   0  0  0  0  0  0
   -0.2241   -2.5415    6.1000 C   0  0  0  0  0  0
    0.5651   -1.7113    5.6910 O   0  0  0  0  0  0
   -1.7115   -2.3454    6.2025 C   0  0  0  0  0  0
   -2.0989   -1.3199    7.2798 C   0  0  0  0  0  0
   -1.7063   -1.7728    8.6920 C   0  0  0  0  0  0
   -2.4754   -1.0073    9.7435 C   0  0  0  0  0  0
   -2.0328   -0.0228   10.3253 O   0  0  0  0  0  0
   -3.6969   -1.5073    9.9819 O   0  0  0  0  0  0
   -1.3561   -0.0264    6.9175 C   0  0  0  0  0  0
   -0.9196    0.7489    7.7547 O   0  0  0  0  0  0
   -1.2674    0.2103    5.6014 O   0  0  0  0  0  0
    2.5371   -3.8218    8.4800 O   0  0  0  0  0  0
    3.3143   -4.9492    8.6869 C   0  0  0  0  0  0
    4.3562   -5.1952    8.0933 O   0  0  0  0  0  0
    2.7247   -5.8763    9.7579 C   0  0  0  0  0  0
    3.2564   -7.3432    9.7512 C   0  0  0  0  0  0
    4.0789   -7.8089    8.5359 C   0  0  0  0  0  0
    4.5464   -9.2309    8.6541 C   0  0  0  0  0  0
    5.6867   -9.6261    8.4540 O   0  0  0  0  0  0
    3.5651  -10.0639    9.0330 O   0  0  0  0  0  0
    4.0391   -7.7434   11.0080 C   0  0  0  0  0  0
    4.1445   -8.8950   11.3814 O   0  0  0  0  0  0
    4.7004   -6.7403   11.6227 O   0  0  0  0  0  0
   -7.4425   -6.9362   13.3025 H   0  0  0  0  0  0
   -8.7806   -6.0985   12.9440 H   0  0  0  0  0  0
   -4.9394   -6.5729   10.2746 H   0  0  0  0  0  0
   -6.6098   -8.1312    6.5619 H   0  0  0  0  0  0
   -2.9544   -4.5660    5.5232 H   0  0  0  0  0  0
   -4.1644   -1.1186   10.7460 H   0  0  0  0  0  0
   -0.9399    1.1143    5.3686 H   0  0  0  0  0  0
    3.9757  -10.9460    9.1535 H   0  0  0  0  0  0
    4.5575   -5.8466   11.2394 H   0  0  0  0  0  0
  1  2  1  0  0  0
  2  3  1  0  0  0
  3  4  1  0  0  0
  4  5  1  0  0  0
  5  6  1  0  0  0
  5  7  1  0  0  0
  7  8  1  0  0  0
  7 39  1  0  0  0
  8  9  1  0  0  0
  8 27  1  0  0  0
  9 10  1  0  0  0
 10 11  1  0  0  0
 10 12  1  0  0  0
 12 13  1  0  0  0
 13 14  1  0  0  0
 13 26  1  0  0  0
 14 15  1  0  0  0
 15 16  1  0  0  0
 16 17  1  0  0  0
 17 18  1  0  0  0
 18 19  1  0  0  0
 18 25  1  0  0  0
 19 20  1  0  0  0
 20 21  1  0  0  0
 20 24  1  0  0  0
 21 22  1  0  0  0
 21 23  1  0  0  0
 23 51  1  0  0  0
 23 52  1  0  0  0
 24 53  1  0  0  0
 25 54  1  0  0  0
 26 55  1  0  0  0
 27 28  1  0  0  0
 28 29  2  0  0  0
 28 30  1  0  0  0
 30 31  1  0  0  0
 31 32  1  0  0  0
 31 36  1  0  0  0
 32 33  1  0  0  0
 33 34  2  0  0  0
 33 35  1  0  0  0
 35 56  1  0  0  0
 36 37  2  0  0  0
 36 38  1  0  0  0
 38 57  1  0  0  0
 39 40  1  0  0  0
 40 41  2  0  0  0
 40 42  1  0  0  0
 42 43  1  0  0  0
 43 44  1  0  0  0
 43 48  1  0  0  0
 44 45  1  0  0  0
 45 46  2  0  0  0
 45 47  1  0  0  0
 47 58  1  0  0  0
 48 49  2  0  0  0
 48 50  1  0  0  0
 50 59  1  0  0  0
M  END
>  <AUTHOR>
    GENERATED BY OPEN BABEL 2.4.1

>  <CHROM.1>
169.04173877,-76.28442969,-11.79971872,53.20361180,95.70483748,-60.66157757
-172.57884461,60.54507069,-172.99474399,-86.90000798,49.67243599,-171.05963903
-51.37119201,52.73480434,171.91440891,73.50473889,-62.60575009,-72.00926305
-67.13270299,-61.99124818,61.37892118,63.42683665,-107.20400482,-5.18299625
115.63671825,-63.81157534,-161.26592821,-145.47168809,-96.84111921,171.26998993
169.37253343,38.97460278,161.65843890,-12.14247675,179.33581329,155.22924408
-131.65164374,-175.49713425,4.34256280,-0.44718479,-4.90711590,7.99950400
0.37997291,0.10606455,-0.32526089

>  <COMPND>
    UNNAMED

>  <MASTER>
        0    0    0    0    0    0    0    0  109    0  109    0

>  <Name>
FB1.pdb

>  <RI>
0

>  <Rbt.Current_Directory>
/home/fc/tossine/F10/p3/2_clust03

>  <Rbt.Executable>
rbdock/0.1.0

>  <Rbt.Library>
librxdock.so/0.1.0

>  <Rbt.Parameter_File>
/cluster/rxdock/data/scripts/dock.prm

>  <Rbt.Receptor>
rx_2.prm

>  <SCORE>
18.0895

>  <SCORE.INTER>
3.03533

>  <SCORE.INTER.CONST>
1

>  <SCORE.INTER.POLAR>
-1.73317

>  <SCORE.INTER.REPUL>
0.412668

>  <SCORE.INTER.ROT>
32

>  <SCORE.INTER.VDW>
-30.5352

>  <SCORE.INTER.norm>
0.0607065

>  <SCORE.INTRA>
14.0402

>  <SCORE.INTRA.DIHEDRAL>
2.5377

>  <SCORE.INTRA.DIHEDRAL.0>
47.3121

>  <SCORE.INTRA.POLAR>
1.47808

>  <SCORE.INTRA.POLAR.0>
-1.47808

>  <SCORE.INTRA.REPUL>
0

>  <SCORE.INTRA.REPUL.0>
0

>  <SCORE.INTRA.VDW>
7.74585

>  <SCORE.INTRA.VDW.0>
-2.78316

>  <SCORE.INTRA.norm>
0.280803

>  <SCORE.RESTR>
1.01403

>  <SCORE.RESTR.CAVITY>
1.01403

>  <SCORE.RESTR.norm>
0.0202807

>  <SCORE.SYSTEM>
0

>  <SCORE.SYSTEM.CONST>
0

>  <SCORE.SYSTEM.DIHEDRAL>
0

>  <SCORE.SYSTEM.norm>
0

>  <SCORE.heavy>
50

>  <SCORE.norm>
0.36179

$$$$
