FB1.pdb
  RxDock  10102000073D
librxdock.so/0.1.0
 59 58  0  0  0  0  0  0  0  0999 V2000
  -10.1814   -6.5932    6.8622 C   0  0  0  0  0  0
   -8.7931   -7.0658    7.2871 C   0  0  0  0  0  0
   -7.7021   -6.0578    6.8896 C   0  0  0  0  0  0
   -6.2653   -6.5515    7.1923 C   0  0  0  0  0  0
   -5.1339   -5.4985    6.9247 C   0  0  0  0  0  0
   -5.3125   -4.3300    7.9214 C   0  0  0  0  0  0
   -3.6703   -6.1044    7.0171 C   0  0  0  0  0  0
   -2.4735   -5.1995    6.4557 C   0  0  0  0  0  0
   -1.8540   -5.3051    4.9951 C   0  0  0  0  0  0
   -0.5932   -6.3582    4.8445 C   0  0  0  0  0  0
    0.4726   -5.7153    3.9585 C   0  0  0  0  0  0
    0.0726   -6.8572    6.2056 C   0  0  0  0  0  0
    1.0331   -8.1541    6.3242 C   0  0  0  0  0  0
    1.6368   -8.6305    7.6897 C   0  0  0  0  0  0
    2.3871  -10.0390    7.7358 C   0  0  0  0  0  0
    3.7363  -10.3022    8.5137 C   0  0  0  0  0  0
    5.0016   -9.4816    8.1491 C   0  0  0  0  0  0
    6.2120   -9.5659    9.1576 C   0  0  0  0  0  0
    6.7510  -10.9705    9.4561 C   0  0  0  0  0  0
    7.2659  -11.2729   10.8920 C   0  0  0  0  0  0
    6.3889  -10.9369   12.1343 C   0  0  0  0  0  0
    6.2556   -9.4630   12.4909 C   0  0  0  0  0  0
    5.0634  -11.5762   12.0302 N   0  0  0  0  0  0
    7.4310  -12.7135   10.9275 O   0  0  0  0  0  0
    7.2806   -8.7708    8.6325 O   0  0  0  0  0  0
    0.2280   -9.2533    5.8660 O   0  0  0  0  0  0
   -2.9242   -3.8215    6.5566 O   0  0  0  0  0  0
   -2.0195   -2.8531    6.2581 C   0  0  0  0  0  0
   -1.0875   -2.9536    5.4830 O   0  0  0  0  0  0
   -2.4198   -1.5914    6.9718 C   0  0  0  0  0  0
   -1.3564   -1.1184    7.9758 C   0  0  0  0  0  0
   -0.0429   -0.7132    7.2948 C   0  0  0  0  0  0
   -0.3000   -0.0847    5.9449 C   0  0  0  0  0  0
   -1.1629    0.7632    5.7447 O   0  0  0  0  0  0
    0.5105   -0.5426    4.9793 O   0  0  0  0  0  0
   -1.9673    0.0896    8.6994 C   0  0  0  0  0  0
   -2.3737    0.0419    9.8506 O   0  0  0  0  0  0
   -2.0649    1.1940    7.9466 O   0  0  0  0  0  0
   -3.3869   -6.6144    8.3807 O   0  0  0  0  0  0
   -3.7611   -7.9114    8.6902 C   0  0  0  0  0  0
   -4.0581   -8.3017    9.8118 O   0  0  0  0  0  0
   -3.7659   -8.8272    7.4591 C   0  0  0  0  0  0
   -4.5998  -10.1390    7.5940 C   0  0  0  0  0  0
   -4.2186  -11.1268    8.7117 C   0  0  0  0  0  0
   -4.7511  -12.5111    8.4780 C   0  0  0  0  0  0
   -5.5093  -12.8412    7.5764 O   0  0  0  0  0  0
   -4.2876  -13.3971    9.3727 O   0  0  0  0  0  0
   -6.1163   -9.9250    7.6766 C   0  0  0  0  0  0
   -6.6991   -9.7277    8.7245 O   0  0  0  0  0  0
   -6.7580   -9.8622    6.4910 O   0  0  0  0  0  0
    4.4390  -10.9667   11.5038 H   0  0  0  0  0  0
    4.6525  -11.6303   12.9649 H   0  0  0  0  0  0
    7.9908  -12.8783   11.7154 H   0  0  0  0  0  0
    7.9835   -8.7228    9.3064 H   0  0  0  0  0  0
   -0.5231   -9.3504    6.4750 H   0  0  0  0  0  0
    0.5102   -0.0217    4.1534 H   0  0  0  0  0  0
   -2.1249    1.0232    6.9740 H   0  0  0  0  0  0
   -4.6092  -14.2786    9.0883 H   0  0  0  0  0  0
   -7.7354   -9.7741    6.5470 H   0  0  0  0  0  0
  1  2  1  0  0  0
  2  3  1  0  0  0
  3  4  1  0  0  0
  4  5  1  0  0  0
  5  6  1  0  0  0
  5  7  1  0  0  0
  7  8  1  0  0  0
  7 39  1  0  0  0
  8  9  1  0  0  0
  8 27  1  0  0  0
  9 10  1  0  0  0
 10 11  1  0  0  0
 10 12  1  0  0  0
 12 13  1  0  0  0
 13 14  1  0  0  0
 13 26  1  0  0  0
 14 15  1  0  0  0
 15 16  1  0  0  0
 16 17  1  0  0  0
 17 18  1  0  0  0
 18 19  1  0  0  0
 18 25  1  0  0  0
 19 20  1  0  0  0
 20 21  1  0  0  0
 20 24  1  0  0  0
 21 22  1  0  0  0
 21 23  1  0  0  0
 23 51  1  0  0  0
 23 52  1  0  0  0
 24 53  1  0  0  0
 25 54  1  0  0  0
 26 55  1  0  0  0
 27 28  1  0  0  0
 28 29  2  0  0  0
 28 30  1  0  0  0
 30 31  1  0  0  0
 31 32  1  0  0  0
 31 36  1  0  0  0
 32 33  1  0  0  0
 33 34  2  0  0  0
 33 35  1  0  0  0
 35 56  1  0  0  0
 36 37  2  0  0  0
 36 38  1  0  0  0
 38 57  1  0  0  0
 39 40  1  0  0  0
 40 41  2  0  0  0
 40 42  1  0  0  0
 42 43  1  0  0  0
 43 44  1  0  0  0
 43 48  1  0  0  0
 44 45  1  0  0  0
 45 46  2  0  0  0
 45 47  1  0  0  0
 47 58  1  0  0  0
 48 49  2  0  0  0
 48 50  1  0  0  0
 50 59  1  0  0  0
M  END
>  <AUTHOR>
    GENERATED BY OPEN BABEL 2.4.1

>  <CHROM.1>
-175.05771645,-174.56573670,65.68606847,167.17550703,-95.55488678,86.48056899
-89.87551330,173.70368887,-138.37208104,163.18964680,-178.38166676,170.91226809
-63.33955300,138.12960110,-59.29345082,167.10956310,56.59316376,-144.74364955
172.52537275,50.61507170,-72.87232493,164.00281628,-86.44645269,28.93567817
118.29066714,64.70076166,34.28090262,106.09517386,45.25134441,-166.77577255
25.80967733,-151.37443102,-160.62415800,-59.44059873,-160.85965070,-87.63774758
-6.27314931,-174.21711016,176.81225452,-1.18066786,-6.92568427,7.79608759
2.56044293,-0.14741557,-0.21031186

>  <COMPND>
    UNNAMED

>  <MASTER>
        0    0    0    0    0    0    0    0  109    0  109    0

>  <Name>
FB1.pdb

>  <RI>
0

>  <Rbt.Current_Directory>
/home/fc/tossine/F10/p3/2_clust03

>  <Rbt.Executable>
rbdock/0.1.0

>  <Rbt.Library>
librxdock.so/0.1.0

>  <Rbt.Parameter_File>
/cluster/rxdock/data/scripts/dock.prm

>  <Rbt.Receptor>
rx_1.prm

>  <SCORE>
23.6767

>  <SCORE.INTER>
7.20188

>  <SCORE.INTER.CONST>
1

>  <SCORE.INTER.POLAR>
-1.78844

>  <SCORE.INTER.REPUL>
0.755225

>  <SCORE.INTER.ROT>
32

>  <SCORE.INTER.VDW>
-27.8936

>  <SCORE.INTER.norm>
0.144038

>  <SCORE.INTRA>
16.4749

>  <SCORE.INTRA.DIHEDRAL>
15.6491

>  <SCORE.INTRA.DIHEDRAL.0>
47.3121

>  <SCORE.INTRA.POLAR>
1.07125

>  <SCORE.INTRA.POLAR.0>
-1.47808

>  <SCORE.INTRA.REPUL>
0

>  <SCORE.INTRA.REPUL.0>
0

>  <SCORE.INTRA.VDW>
5.00809

>  <SCORE.INTRA.VDW.0>
-2.78316

>  <SCORE.INTRA.norm>
0.329497

>  <SCORE.RESTR>
0

>  <SCORE.RESTR.CAVITY>
0

>  <SCORE.RESTR.norm>
0

>  <SCORE.SYSTEM>
0

>  <SCORE.SYSTEM.CONST>
0

>  <SCORE.SYSTEM.DIHEDRAL>
0

>  <SCORE.SYSTEM.norm>
0

>  <SCORE.heavy>
50

>  <SCORE.norm>
0.473535

$$$$
