FB1.pdb
  RxDock  10092023083D
librxdock.so/0.1.0
 59 58  0  0  0  0  0  0  0  0999 V2000
    3.6780   -3.9015    7.6383 C   0  0  0  0  0  0
    3.5636   -5.3904    7.9565 C   0  0  0  0  0  0
    2.6489   -5.6456    9.1659 C   0  0  0  0  0  0
    1.1453   -5.4358    8.8581 C   0  0  0  0  0  0
    0.3137   -6.7553    8.6914 C   0  0  0  0  0  0
    0.4205   -7.5656   10.0039 C   0  0  0  0  0  0
   -1.2037   -6.5027    8.3023 C   0  0  0  0  0  0
   -1.5101   -5.2512    7.3504 C   0  0  0  0  0  0
   -1.2788   -3.7271    7.7399 C   0  0  0  0  0  0
   -2.4156   -2.6782    7.1662 C   0  0  0  0  0  0
   -3.7806   -3.0974    7.7096 C   0  0  0  0  0  0
   -2.1675   -1.1334    7.4773 C   0  0  0  0  0  0
   -0.8631   -0.3078    6.9919 C   0  0  0  0  0  0
    0.5961   -0.8304    7.2237 C   0  0  0  0  0  0
    1.4698   -1.2279    5.9478 C   0  0  0  0  0  0
    2.0877   -0.1860    4.9343 C   0  0  0  0  0  0
    3.6028    0.1414    5.0031 C   0  0  0  0  0  0
    4.1567    1.1487    3.9225 C   0  0  0  0  0  0
    3.8205    0.8293    2.4605 C   0  0  0  0  0  0
    4.1778   -0.5817    1.9130 C   0  0  0  0  0  0
    5.6404   -1.1117    1.9856 C   0  0  0  0  0  0
    5.9786   -2.2922    1.0859 C   0  0  0  0  0  0
    6.6073   -0.0131    1.7998 N   0  0  0  0  0  0
    3.4052   -1.4989    2.7289 O   0  0  0  0  0  0
    3.6493    2.4513    4.2317 O   0  0  0  0  0  0
   -1.0020   -0.2032    5.5649 O   0  0  0  0  0  0
   -0.7057   -5.4432    6.1552 O   0  0  0  0  0  0
   -1.3477   -5.3659    4.9606 C   0  0  0  0  0  0
   -2.4252   -4.8401    4.7556 O   0  0  0  0  0  0
   -0.4555   -5.9527    3.9019 C   0  0  0  0  0  0
    0.6031   -4.9561    3.4032 C   0  0  0  0  0  0
   -0.0083   -3.6210    2.9592 C   0  0  0  0  0  0
    0.9041   -2.8970    1.9965 C   0  0  0  0  0  0
    0.7827   -1.7112    1.7086 O   0  0  0  0  0  0
    1.8672   -3.6771    1.4838 O   0  0  0  0  0  0
    1.5585   -4.7299    4.5830 C   0  0  0  0  0  0
    1.9402   -3.6222    4.9292 O   0  0  0  0  0  0
    1.9816   -5.8549    5.1757 O   0  0  0  0  0  0
   -1.8435   -7.7457    7.8069 O   0  0  0  0  0  0
   -2.5915   -8.5010    8.6946 C   0  0  0  0  0  0
   -3.6386   -8.1335    9.2114 O   0  0  0  0  0  0
   -1.9614   -9.8728    8.9691 C   0  0  0  0  0  0
   -2.3643  -11.0128    7.9829 C   0  0  0  0  0  0
   -1.2872  -12.0378    7.5834 C   0  0  0  0  0  0
   -1.7754  -13.0398    6.5773 C   0  0  0  0  0  0
   -2.6228  -13.8987    6.7790 O   0  0  0  0  0  0
   -1.1885  -12.8922    5.3798 O   0  0  0  0  0  0
   -3.6108  -11.8041    8.3979 C   0  0  0  0  0  0
   -3.8240  -12.1470    9.5440 O   0  0  0  0  0  0
   -4.5197  -12.0074    7.4212 O   0  0  0  0  0  0
    6.3543    0.5173    0.9672 H   0  0  0  0  0  0
    7.5227   -0.4160    1.5874 H   0  0  0  0  0  0
    3.3578   -2.3217    2.1976 H   0  0  0  0  0  0
    2.6791    2.3903    4.3050 H   0  0  0  0  0  0
   -1.8483    0.2358    5.3765 H   0  0  0  0  0  0
    1.6949   -4.0146    0.5839 H   0  0  0  0  0  0
    2.5262   -6.4436    4.5964 H   0  0  0  0  0  0
   -0.9752  -11.9398    5.2864 H   0  0  0  0  0  0
   -5.4365  -12.1807    7.7306 H   0  0  0  0  0  0
  1  2  1  0  0  0
  2  3  1  0  0  0
  3  4  1  0  0  0
  4  5  1  0  0  0
  5  6  1  0  0  0
  5  7  1  0  0  0
  7  8  1  0  0  0
  7 39  1  0  0  0
  8  9  1  0  0  0
  8 27  1  0  0  0
  9 10  1  0  0  0
 10 11  1  0  0  0
 10 12  1  0  0  0
 12 13  1  0  0  0
 13 14  1  0  0  0
 13 26  1  0  0  0
 14 15  1  0  0  0
 15 16  1  0  0  0
 16 17  1  0  0  0
 17 18  1  0  0  0
 18 19  1  0  0  0
 18 25  1  0  0  0
 19 20  1  0  0  0
 20 21  1  0  0  0
 20 24  1  0  0  0
 21 22  1  0  0  0
 21 23  1  0  0  0
 23 51  1  0  0  0
 23 52  1  0  0  0
 24 53  1  0  0  0
 25 54  1  0  0  0
 26 55  1  0  0  0
 27 28  1  0  0  0
 28 29  2  0  0  0
 28 30  1  0  0  0
 30 31  1  0  0  0
 31 32  1  0  0  0
 31 36  1  0  0  0
 32 33  1  0  0  0
 33 34  2  0  0  0
 33 35  1  0  0  0
 35 56  1  0  0  0
 36 37  2  0  0  0
 36 38  1  0  0  0
 38 57  1  0  0  0
 39 40  1  0  0  0
 40 41  2  0  0  0
 40 42  1  0  0  0
 42 43  1  0  0  0
 43 44  1  0  0  0
 43 48  1  0  0  0
 44 45  1  0  0  0
 45 46  2  0  0  0
 45 47  1  0  0  0
 47 58  1  0  0  0
 48 49  2  0  0  0
 48 50  1  0  0  0
 50 59  1  0  0  0
M  END
>  <AUTHOR>
    GENERATED BY OPEN BABEL 2.4.1

>  <CHROM.1>
73.05074361,104.14316456,59.33082836,34.52998375,-65.07621602,97.05054647
-142.95288713,128.32332986,59.14028893,59.78787011,-49.92564086,113.76851915
57.56402468,72.61421239,103.59825675,177.69377934,-51.57972070,-53.67612063
-53.53066949,-56.33886912,-162.74391543,159.55134769,-50.20123912,19.45354059
-81.80546291,-52.44458681,-157.34037847,-134.15015699,-164.69374822,100.07051063
63.78437638,65.99129051,-87.76373071,142.64869033,-176.98919649,-41.63170066
-67.36143091,-30.21310017,-156.83688572,0.33351456,-4.92867142,5.84716390
-0.84598207,-0.80578396,-2.99149790

>  <COMPND>
    UNNAMED

>  <MASTER>
        0    0    0    0    0    0    0    0  109    0  109    0

>  <Name>
FB1.pdb

>  <RI>
0

>  <Rbt.Current_Directory>
/home/fc/tossine/F10/p3/2_clust03

>  <Rbt.Executable>
rbdock/0.1.0

>  <Rbt.Library>
librxdock.so/0.1.0

>  <Rbt.Parameter_File>
/cluster/rxdock/data/scripts/dock.prm

>  <Rbt.Receptor>
rx_0.prm

>  <SCORE>
42.4784

>  <SCORE.INTER>
-1.04953

>  <SCORE.INTER.CONST>
1

>  <SCORE.INTER.POLAR>
-3.93368

>  <SCORE.INTER.REPUL>
1.07587

>  <SCORE.INTER.ROT>
32

>  <SCORE.INTER.VDW>
-30.4543

>  <SCORE.INTER.norm>
-0.0209906

>  <SCORE.INTRA>
42.3396

>  <SCORE.INTRA.DIHEDRAL>
82.3135

>  <SCORE.INTRA.DIHEDRAL.0>
47.3121

>  <SCORE.INTRA.POLAR>
0.711919

>  <SCORE.INTRA.POLAR.0>
-1.47808

>  <SCORE.INTRA.REPUL>
0.0342161

>  <SCORE.INTRA.REPUL.0>
0

>  <SCORE.INTRA.VDW>
-1.40875

>  <SCORE.INTRA.VDW.0>
-2.78316

>  <SCORE.INTRA.norm>
0.846793

>  <SCORE.RESTR>
1.18835

>  <SCORE.RESTR.CAVITY>
1.18835

>  <SCORE.RESTR.norm>
0.0237669

>  <SCORE.SYSTEM>
0

>  <SCORE.SYSTEM.CONST>
0

>  <SCORE.SYSTEM.DIHEDRAL>
0

>  <SCORE.SYSTEM.norm>
0

>  <SCORE.heavy>
50

>  <SCORE.norm>
0.849569

$$$$
