FB1.pdb
  RxDock  10102001023D
librxdock.so/0.1.0
 59 58  0  0  0  0  0  0  0  0999 V2000
   -2.1502   -0.1316    8.6424 C   0  0  0  0  0  0
   -1.5424    1.0937    7.9638 C   0  0  0  0  0  0
   -0.6153    0.7000    6.8020 C   0  0  0  0  0  0
    0.8746    0.5887    7.2113 C   0  0  0  0  0  0
    1.8587    0.2444    6.0394 C   0  0  0  0  0  0
    3.0469    1.2320    6.0971 C   0  0  0  0  0  0
    2.3682   -1.2582    6.0612 C   0  0  0  0  0  0
    1.7034   -2.2343    7.1435 C   0  0  0  0  0  0
    0.1665   -2.6397    7.1882 C   0  0  0  0  0  0
   -0.2495   -3.6716    8.4062 C   0  0  0  0  0  0
   -1.7120   -3.4248    8.7728 C   0  0  0  0  0  0
   -0.0247   -5.2247    8.1194 C   0  0  0  0  0  0
   -0.5087   -5.9781    6.7716 C   0  0  0  0  0  0
   -1.6985   -6.9981    6.7603 C   0  0  0  0  0  0
   -1.4560   -8.4375    6.1133 C   0  0  0  0  0  0
   -0.3485   -9.4542    6.5973 C   0  0  0  0  0  0
   -0.3338  -10.8973    6.0274 C   0  0  0  0  0  0
   -1.3677  -11.9127    6.6512 C   0  0  0  0  0  0
   -2.7850  -11.3778    6.8913 C   0  0  0  0  0  0
   -2.9938  -10.3199    8.0119 C   0  0  0  0  0  0
   -4.2743   -9.4338    8.0349 C   0  0  0  0  0  0
   -5.6055  -10.1637    7.9232 C   0  0  0  0  0  0
   -4.2656   -8.5280    9.1994 N   0  0  0  0  0  0
   -3.0485  -11.0906    9.2394 O   0  0  0  0  0  0
   -1.4511  -13.0477    5.7825 O   0  0  0  0  0  0
   -0.9109   -4.9226    5.8823 O   0  0  0  0  0  0
    2.4067   -3.5015    7.0342 O   0  0  0  0  0  0
    3.4630   -3.6945    7.8663 C   0  0  0  0  0  0
    4.6350   -3.5150    7.5946 O   0  0  0  0  0  0
    2.9370   -4.0730    9.2233 C   0  0  0  0  0  0
    3.2801   -5.5215    9.6064 C   0  0  0  0  0  0
    2.2784   -6.1200   10.6022 C   0  0  0  0  0  0
    2.5763   -7.5779   10.8654 C   0  0  0  0  0  0
    3.7109   -8.0410   10.9097 O   0  0  0  0  0  0
    1.4766   -8.3233   11.0492 O   0  0  0  0  0  0
    3.2595   -6.3206    8.2960 C   0  0  0  0  0  0
    2.6176   -5.9767    7.3152 O   0  0  0  0  0  0
    3.9669   -7.4583    8.3309 O   0  0  0  0  0  0
    2.3543   -1.8480    4.7004 O   0  0  0  0  0  0
    3.2994   -2.8118    4.3901 C   0  0  0  0  0  0
    4.0050   -3.3845    5.2102 O   0  0  0  0  0  0
    3.3723   -3.0943    2.8838 C   0  0  0  0  0  0
    3.3532   -1.8389    1.9574 C   0  0  0  0  0  0
    4.3032   -1.8194    0.7460 C   0  0  0  0  0  0
    5.7328   -1.5613    1.1258 C   0  0  0  0  0  0
    6.1421   -0.5891    1.7456 O   0  0  0  0  0  0
    6.5555   -2.5423    0.7245 O   0  0  0  0  0  0
    1.9617   -1.4434    1.4481 C   0  0  0  0  0  0
    1.6972   -1.3343    0.2670 O   0  0  0  0  0  0
    1.0092   -1.3259    2.3969 O   0  0  0  0  0  0
   -3.4774   -7.8872    9.1183 H   0  0  0  0  0  0
   -4.0727   -9.0779   10.0395 H   0  0  0  0  0  0
   -2.1745  -10.9470    9.6600 H   0  0  0  0  0  0
   -2.0062  -12.8057    5.0184 H   0  0  0  0  0  0
   -1.6340   -5.2574    5.3259 H   0  0  0  0  0  0
    0.6348   -7.8898   10.8105 H   0  0  0  0  0  0
    3.9978   -7.9483    7.4720 H   0  0  0  0  0  0
    6.0008   -3.3408    0.5986 H   0  0  0  0  0  0
    1.3304   -1.3869    3.3239 H   0  0  0  0  0  0
  1  2  1  0  0  0
  2  3  1  0  0  0
  3  4  1  0  0  0
  4  5  1  0  0  0
  5  6  1  0  0  0
  5  7  1  0  0  0
  7  8  1  0  0  0
  7 39  1  0  0  0
  8  9  1  0  0  0
  8 27  1  0  0  0
  9 10  1  0  0  0
 10 11  1  0  0  0
 10 12  1  0  0  0
 12 13  1  0  0  0
 13 14  1  0  0  0
 13 26  1  0  0  0
 14 15  1  0  0  0
 15 16  1  0  0  0
 16 17  1  0  0  0
 17 18  1  0  0  0
 18 19  1  0  0  0
 18 25  1  0  0  0
 19 20  1  0  0  0
 20 21  1  0  0  0
 20 24  1  0  0  0
 21 22  1  0  0  0
 21 23  1  0  0  0
 23 51  1  0  0  0
 23 52  1  0  0  0
 24 53  1  0  0  0
 25 54  1  0  0  0
 26 55  1  0  0  0
 27 28  1  0  0  0
 28 29  2  0  0  0
 28 30  1  0  0  0
 30 31  1  0  0  0
 31 32  1  0  0  0
 31 36  1  0  0  0
 32 33  1  0  0  0
 33 34  2  0  0  0
 33 35  1  0  0  0
 35 56  1  0  0  0
 36 37  2  0  0  0
 36 38  1  0  0  0
 38 57  1  0  0  0
 39 40  1  0  0  0
 40 41  2  0  0  0
 40 42  1  0  0  0
 42 43  1  0  0  0
 43 44  1  0  0  0
 43 48  1  0  0  0
 44 45  1  0  0  0
 45 46  2  0  0  0
 45 47  1  0  0  0
 47 58  1  0  0  0
 48 49  2  0  0  0
 48 50  1  0  0  0
 50 59  1  0  0  0
M  END
>  <AUTHOR>
    GENERATED BY OPEN BABEL 2.4.1

>  <CHROM.1>
-94.04940073,-177.67892926,131.52425954,6.49662683,63.15932870,149.01692014
179.58324409,93.40217097,151.69773769,-48.18296707,-108.97849859,-128.00246373
-148.10751782,58.29275271,171.51022581,-79.30727863,42.76589187,-69.61484414
-77.68322715,161.60898963,50.76971380,103.92486524,63.34377143,-96.86364637
112.74111927,-153.79514826,175.13748022,-24.54619208,35.45838364,12.19041878
-176.64130010,13.04761558,43.88690095,138.48716326,-75.23961677,-123.91562963
-56.75547440,-21.94962880,7.86140373,1.05546995,-4.86561071,6.48756049,0.64788722
0.96443745,0.34885526

>  <COMPND>
    UNNAMED

>  <MASTER>
        0    0    0    0    0    0    0    0  109    0  109    0

>  <Name>
FB1.pdb

>  <RI>
0

>  <Rbt.Current_Directory>
/home/fc/tossine/F10/p3/2_clust03

>  <Rbt.Executable>
rbdock/0.1.0

>  <Rbt.Library>
librxdock.so/0.1.0

>  <Rbt.Parameter_File>
/cluster/rxdock/data/scripts/dock.prm

>  <Rbt.Receptor>
rx_2.prm

>  <SCORE>
43.549

>  <SCORE.INTER>
9.3731

>  <SCORE.INTER.CONST>
1

>  <SCORE.INTER.POLAR>
-1.63096

>  <SCORE.INTER.REPUL>
0.741816

>  <SCORE.INTER.ROT>
32

>  <SCORE.INTER.VDW>
-26.1907

>  <SCORE.INTER.norm>
0.187462

>  <SCORE.INTRA>
32.4451

>  <SCORE.INTRA.DIHEDRAL>
53.6499

>  <SCORE.INTRA.DIHEDRAL.0>
47.3121

>  <SCORE.INTRA.POLAR>
0.473507

>  <SCORE.INTRA.POLAR.0>
-1.47808

>  <SCORE.INTRA.REPUL>
0

>  <SCORE.INTRA.REPUL.0>
0

>  <SCORE.INTRA.VDW>
4.01028

>  <SCORE.INTRA.VDW.0>
-2.78316

>  <SCORE.INTRA.norm>
0.648903

>  <SCORE.RESTR>
1.73077

>  <SCORE.RESTR.CAVITY>
1.73077

>  <SCORE.RESTR.norm>
0.0346154

>  <SCORE.SYSTEM>
0

>  <SCORE.SYSTEM.CONST>
0

>  <SCORE.SYSTEM.DIHEDRAL>
0

>  <SCORE.SYSTEM.norm>
0

>  <SCORE.heavy>
50

>  <SCORE.norm>
0.87098

$$$$
