FB1.pdb
  RxDock  10092023063D
librxdock.so/0.1.0
 59 58  0  0  0  0  0  0  0  0999 V2000
    0.8625   -5.6801   10.5210 C   0  0  0  0  0  0
    2.3254   -5.2824   10.3393 C   0  0  0  0  0  0
    3.0223   -6.1461    9.2750 C   0  0  0  0  0  0
    2.3610   -6.0565    7.8771 C   0  0  0  0  0  0
    2.2018   -4.6017    7.3125 C   0  0  0  0  0  0
    3.5776   -3.8997    7.3845 C   0  0  0  0  0  0
    1.6175   -4.5551    5.8380 C   0  0  0  0  0  0
    0.0436   -4.8038    5.6729 C   0  0  0  0  0  0
   -0.7261   -6.1220    6.1179 C   0  0  0  0  0  0
   -0.9299   -6.2972    7.7455 C   0  0  0  0  0  0
   -2.1482   -5.4802    8.1725 C   0  0  0  0  0  0
   -1.0757   -7.7936    8.2788 C   0  0  0  0  0  0
   -2.4843   -8.5809    8.3996 C   0  0  0  0  0  0
   -2.6847  -10.0339    7.8475 C   0  0  0  0  0  0
   -3.0688  -10.2130    6.3082 C   0  0  0  0  0  0
   -4.4520   -9.7792    5.6812 C   0  0  0  0  0  0
   -5.5466   -9.1662    6.5941 C   0  0  0  0  0  0
   -5.5050   -7.6016    6.7927 C   0  0  0  0  0  0
   -5.4377   -7.1022    8.2414 C   0  0  0  0  0  0
   -6.4299   -7.7051    9.2759 C   0  0  0  0  0  0
   -6.4343   -7.2071   10.7515 C   0  0  0  0  0  0
   -6.6718   -5.7184   10.9634 C   0  0  0  0  0  0
   -7.3578   -8.0108   11.5747 N   0  0  0  0  0  0
   -7.7446   -7.3703    8.7628 O   0  0  0  0  0  0
   -4.3679   -7.0966    6.0844 O   0  0  0  0  0  0
   -2.7331   -8.6786    9.8121 O   0  0  0  0  0  0
   -0.6156   -3.7369    6.4074 O   0  0  0  0  0  0
   -0.9373   -2.6159    5.7109 C   0  0  0  0  0  0
   -0.7666   -2.4348    4.5204 O   0  0  0  0  0  0
   -1.6383   -1.6633    6.6397 C   0  0  0  0  0  0
   -2.7687   -2.3373    7.4336 C   0  0  0  0  0  0
   -3.4659   -1.3716    8.4004 C   0  0  0  0  0  0
   -2.4992   -0.8429    9.4344 C   0  0  0  0  0  0
   -2.0494    0.2979    9.4219 O   0  0  0  0  0  0
   -2.1776   -1.7432   10.3751 O   0  0  0  0  0  0
   -3.7704   -2.8494    6.3894 C   0  0  0  0  0  0
   -3.9546   -4.0366    6.1680 O   0  0  0  0  0  0
   -4.3945   -1.8835    5.7014 O   0  0  0  0  0  0
    2.0637   -3.3343    5.1235 O   0  0  0  0  0  0
    3.2344   -3.3931    4.3859 C   0  0  0  0  0  0
    3.7989   -4.4282    4.0569 O   0  0  0  0  0  0
    3.7615   -2.0006    4.0153 C   0  0  0  0  0  0
    3.0550   -1.3078    2.8089 C   0  0  0  0  0  0
    3.5641    0.0775    2.3708 C   0  0  0  0  0  0
    2.4549    1.0227    2.0090 C   0  0  0  0  0  0
    1.2611    0.7555    2.0101 O   0  0  0  0  0  0
    2.9062    2.2449    1.6883 O   0  0  0  0  0  0
    2.9536   -2.1731    1.5467 C   0  0  0  0  0  0
    1.9368   -2.2626    0.8874 O   0  0  0  0  0  0
    4.1053   -2.7524    1.1473 O   0  0  0  0  0  0
   -7.3458   -7.6584   12.5308 H   0  0  0  0  0  0
   -6.9920   -8.9633   11.6404 H   0  0  0  0  0  0
   -8.3676   -7.7139    9.4374 H   0  0  0  0  0  0
   -3.5696   -7.3010    6.6053 H   0  0  0  0  0  0
   -2.7688   -7.7774   10.1742 H   0  0  0  0  0  0
   -1.6501   -1.3970   11.1202 H   0  0  0  0  0  0
   -5.0998   -2.2073    5.0878 H   0  0  0  0  0  0
    2.1222    2.7774    1.4375 H   0  0  0  0  0  0
    4.0150   -3.4096    0.4220 H   0  0  0  0  0  0
  1  2  1  0  0  0
  2  3  1  0  0  0
  3  4  1  0  0  0
  4  5  1  0  0  0
  5  6  1  0  0  0
  5  7  1  0  0  0
  7  8  1  0  0  0
  7 39  1  0  0  0
  8  9  1  0  0  0
  8 27  1  0  0  0
  9 10  1  0  0  0
 10 11  1  0  0  0
 10 12  1  0  0  0
 12 13  1  0  0  0
 13 14  1  0  0  0
 13 26  1  0  0  0
 14 15  1  0  0  0
 15 16  1  0  0  0
 16 17  1  0  0  0
 17 18  1  0  0  0
 18 19  1  0  0  0
 18 25  1  0  0  0
 19 20  1  0  0  0
 20 21  1  0  0  0
 20 24  1  0  0  0
 21 22  1  0  0  0
 21 23  1  0  0  0
 23 51  1  0  0  0
 23 52  1  0  0  0
 24 53  1  0  0  0
 25 54  1  0  0  0
 26 55  1  0  0  0
 27 28  1  0  0  0
 28 29  2  0  0  0
 28 30  1  0  0  0
 30 31  1  0  0  0
 31 32  1  0  0  0
 31 36  1  0  0  0
 32 33  1  0  0  0
 33 34  2  0  0  0
 33 35  1  0  0  0
 35 56  1  0  0  0
 36 37  2  0  0  0
 36 38  1  0  0  0
 38 57  1  0  0  0
 39 40  1  0  0  0
 40 41  2  0  0  0
 40 42  1  0  0  0
 42 43  1  0  0  0
 43 44  1  0  0  0
 43 48  1  0  0  0
 44 45  1  0  0  0
 45 46  2  0  0  0
 45 47  1  0  0  0
 47 58  1  0  0  0
 48 49  2  0  0  0
 48 50  1  0  0  0
 50 59  1  0  0  0
M  END
>  <AUTHOR>
    GENERATED BY OPEN BABEL 2.4.1

>  <CHROM.1>
59.35824912,54.23982754,52.15920741,76.70387639,-59.78784471,90.74056827
73.70558929,92.03700073,82.39116868,-88.89399053,131.48067847,-85.19386122
59.16983781,-68.24640875,-1.51934752,88.44555778,-124.59703637,-48.05935901
-76.21806566,-178.26426784,57.61258752,-177.41301590,-179.53751749,2.59153894
-49.03970859,178.90554291,-61.65477051,111.36284839,105.90640012,-172.24241749
-174.62489789,15.03624134,-79.27692645,-178.59236526,-139.37059236,134.99177585
-1.97786976,177.98005220,171.30222749,-1.10557929,-4.45755320,6.60660692
-2.41518262,0.44488052,-0.29686730

>  <COMPND>
    UNNAMED

>  <MASTER>
        0    0    0    0    0    0    0    0  109    0  109    0

>  <Name>
FB1.pdb

>  <RI>
0

>  <Rbt.Current_Directory>
/home/fc/tossine/F10/p3/2_clust03

>  <Rbt.Executable>
rbdock/0.1.0

>  <Rbt.Library>
librxdock.so/0.1.0

>  <Rbt.Parameter_File>
/cluster/rxdock/data/scripts/dock.prm

>  <Rbt.Receptor>
rx_0.prm

>  <SCORE>
9.07018

>  <SCORE.INTER>
3.19942

>  <SCORE.INTER.CONST>
1

>  <SCORE.INTER.POLAR>
-2.43674

>  <SCORE.INTER.REPUL>
1.01135

>  <SCORE.INTER.ROT>
32

>  <SCORE.INTER.VDW>
-30.9724

>  <SCORE.INTER.norm>
0.0639884

>  <SCORE.INTRA>
5.73854

>  <SCORE.INTRA.DIHEDRAL>
7.68129

>  <SCORE.INTRA.DIHEDRAL.0>
47.3121

>  <SCORE.INTRA.POLAR>
1.35307

>  <SCORE.INTRA.POLAR.0>
-1.47808

>  <SCORE.INTRA.REPUL>
0

>  <SCORE.INTRA.REPUL.0>
0

>  <SCORE.INTRA.VDW>
-2.70254

>  <SCORE.INTRA.VDW.0>
-2.78316

>  <SCORE.INTRA.norm>
0.114771

>  <SCORE.RESTR>
0.132227

>  <SCORE.RESTR.CAVITY>
0.132227

>  <SCORE.RESTR.norm>
0.00264454

>  <SCORE.SYSTEM>
0

>  <SCORE.SYSTEM.CONST>
0

>  <SCORE.SYSTEM.DIHEDRAL>
0

>  <SCORE.SYSTEM.norm>
0

>  <SCORE.heavy>
50

>  <SCORE.norm>
0.181404

$$$$
