FB1.pdb
  RxDock  10102002173D
librxdock.so/0.1.0
 59 58  0  0  0  0  0  0  0  0999 V2000
   -1.7611   -9.2030   11.4825 C   0  0  0  0  0  0
   -0.3764   -8.9206   12.0607 C   0  0  0  0  0  0
    0.2781   -7.6966   11.3991 C   0  0  0  0  0  0
    0.6440   -7.9209    9.9107 C   0  0  0  0  0  0
    1.2522   -6.6712    9.1834 C   0  0  0  0  0  0
    2.7873   -6.7032    9.3650 C   0  0  0  0  0  0
    0.8642   -6.5815    7.6474 C   0  0  0  0  0  0
   -0.6979   -6.5395    7.2947 C   0  0  0  0  0  0
   -1.5752   -5.2182    7.1818 C   0  0  0  0  0  0
   -1.0512   -4.1240    6.0640 C   0  0  0  0  0  0
   -1.3156   -4.6903    4.6699 C   0  0  0  0  0  0
   -1.6697   -2.6575    6.1719 C   0  0  0  0  0  0
   -1.5305   -1.7073    7.4743 C   0  0  0  0  0  0
   -2.0775   -2.1260    8.8820 C   0  0  0  0  0  0
   -3.4609   -1.4989    9.3741 C   0  0  0  0  0  0
   -3.7144    0.0471    9.5749 C   0  0  0  0  0  0
   -5.0491    0.5278   10.2033 C   0  0  0  0  0  0
   -5.1298    2.0503   10.6092 C   0  0  0  0  0  0
   -3.9027    2.6286   11.3248 C   0  0  0  0  0  0
   -2.5449    2.6412   10.5668 C   0  0  0  0  0  0
   -2.1270    3.8743    9.7123 C   0  0  0  0  0  0
   -0.7987    3.7697    8.9761 C   0  0  0  0  0  0
   -3.2106    4.2673    8.7916 N   0  0  0  0  0  0
   -1.5409    2.5492   11.6095 O   0  0  0  0  0  0
   -5.3640    2.8125    9.4201 O   0  0  0  0  0  0
   -0.1150   -1.5364    7.6575 O   0  0  0  0  0  0
   -0.8386   -7.1769    5.9961 O   0  0  0  0  0  0
   -0.7240   -8.5299    5.9574 C   0  0  0  0  0  0
   -0.0868   -9.1750    5.1467 O   0  0  0  0  0  0
   -1.4372   -9.1023    7.1511 C   0  0  0  0  0  0
   -2.0070  -10.5043    6.8821 C   0  0  0  0  0  0
   -0.9449  -11.6046    7.0033 C   0  0  0  0  0  0
   -1.1107  -12.6441    5.9192 C   0  0  0  0  0  0
   -1.9174  -13.5656    5.9808 O   0  0  0  0  0  0
   -0.2889  -12.4628    4.8749 O   0  0  0  0  0  0
   -3.1086  -10.7199    7.9289 C   0  0  0  0  0  0
   -3.2959   -9.9594    8.8664 O   0  0  0  0  0  0
   -3.8211  -11.8422    7.7589 O   0  0  0  0  0  0
    1.6152   -5.4980    6.9678 O   0  0  0  0  0  0
    1.9122   -5.6451    5.6231 C   0  0  0  0  0  0
    1.6465   -6.6362    4.9556 O   0  0  0  0  0  0
    2.6215   -4.4140    5.0438 C   0  0  0  0  0  0
    1.9360   -3.0414    5.3273 C   0  0  0  0  0  0
    2.4326   -2.2198    6.5310 C   0  0  0  0  0  0
    3.8113   -1.6599    6.3303 C   0  0  0  0  0  0
    4.0756   -0.5008    6.0417 O   0  0  0  0  0  0
    4.7709   -2.5779    6.5218 O   0  0  0  0  0  0
    1.8841   -2.0937    4.1225 C   0  0  0  0  0  0
    0.8752   -1.5036    3.7896 O   0  0  0  0  0  0
    3.0658   -1.8691    3.5106 O   0  0  0  0  0  0
   -3.7550    5.0166    9.2168 H   0  0  0  0  0  0
   -3.8634    3.4853    8.7027 H   0  0  0  0  0  0
   -1.6358    1.6399   11.9638 H   0  0  0  0  0  0
   -6.0738    2.3761    8.9139 H   0  0  0  0  0  0
    0.2371   -1.0827    6.8734 H   0  0  0  0  0  0
    0.3754  -11.7557    4.9854 H   0  0  0  0  0  0
   -3.6388  -12.3192    6.9116 H   0  0  0  0  0  0
    4.3546   -3.3237    7.0034 H   0  0  0  0  0  0
    3.0288   -1.2669    2.7346 H   0  0  0  0  0  0
  1  2  1  0  0  0
  2  3  1  0  0  0
  3  4  1  0  0  0
  4  5  1  0  0  0
  5  6  1  0  0  0
  5  7  1  0  0  0
  7  8  1  0  0  0
  7 39  1  0  0  0
  8  9  1  0  0  0
  8 27  1  0  0  0
  9 10  1  0  0  0
 10 11  1  0  0  0
 10 12  1  0  0  0
 12 13  1  0  0  0
 13 14  1  0  0  0
 13 26  1  0  0  0
 14 15  1  0  0  0
 15 16  1  0  0  0
 16 17  1  0  0  0
 17 18  1  0  0  0
 18 19  1  0  0  0
 18 25  1  0  0  0
 19 20  1  0  0  0
 20 21  1  0  0  0
 20 24  1  0  0  0
 21 22  1  0  0  0
 21 23  1  0  0  0
 23 51  1  0  0  0
 23 52  1  0  0  0
 24 53  1  0  0  0
 25 54  1  0  0  0
 26 55  1  0  0  0
 27 28  1  0  0  0
 28 29  2  0  0  0
 28 30  1  0  0  0
 30 31  1  0  0  0
 31 32  1  0  0  0
 31 36  1  0  0  0
 32 33  1  0  0  0
 33 34  2  0  0  0
 33 35  1  0  0  0
 35 56  1  0  0  0
 36 37  2  0  0  0
 36 38  1  0  0  0
 38 57  1  0  0  0
 39 40  1  0  0  0
 40 41  2  0  0  0
 40 42  1  0  0  0
 42 43  1  0  0  0
 43 44  1  0  0  0
 43 48  1  0  0  0
 44 45  1  0  0  0
 45 46  2  0  0  0
 45 47  1  0  0  0
 47 58  1  0  0  0
 48 49  2  0  0  0
 48 50  1  0  0  0
 50 59  1  0  0  0
M  END
>  <AUTHOR>
    GENERATED BY OPEN BABEL 2.4.1

>  <CHROM.1>
-67.64772707,177.24968874,89.48499166,57.77961443,89.20727219,149.90891857
58.48245377,74.46587763,70.80823142,59.62488760,-59.93182130,-101.63490362
62.55221465,-60.51616258,-173.40709902,169.43055667,-43.62013667,61.85838064
46.28806977,91.23438643,-178.19479173,69.23426637,96.05892155,-135.09425490
150.27969945,80.55453992,-139.53806438,-9.12006169,-81.71907047,6.66400635
-8.57711308,-3.11853236,-50.56068172,95.64022300,69.60618271,132.54019009
102.59025257,-16.47037469,179.55163024,-0.63629476,-4.44985240,7.60021133
1.44791732,-0.65760521,-3.05300813

>  <COMPND>
    UNNAMED

>  <MASTER>
        0    0    0    0    0    0    0    0  109    0  109    0

>  <Name>
FB1.pdb

>  <RI>
0

>  <Rbt.Current_Directory>
/home/fc/tossine/F10/p3/2_clust03

>  <Rbt.Executable>
rbdock/0.1.0

>  <Rbt.Library>
librxdock.so/0.1.0

>  <Rbt.Parameter_File>
/cluster/rxdock/data/scripts/dock.prm

>  <Rbt.Receptor>
rx_4.prm

>  <SCORE>
19.9026

>  <SCORE.INTER>
12.8858

>  <SCORE.INTER.CONST>
1

>  <SCORE.INTER.POLAR>
-0.998952

>  <SCORE.INTER.REPUL>
1.16927

>  <SCORE.INTER.ROT>
32

>  <SCORE.INTER.VDW>
-26.9641

>  <SCORE.INTER.norm>
0.257717

>  <SCORE.INTRA>
6.80284

>  <SCORE.INTRA.DIHEDRAL>
8.88888

>  <SCORE.INTRA.DIHEDRAL.0>
47.3121

>  <SCORE.INTRA.POLAR>
0.641966

>  <SCORE.INTRA.POLAR.0>
-1.47808

>  <SCORE.INTRA.REPUL>
0

>  <SCORE.INTRA.REPUL.0>
0

>  <SCORE.INTRA.VDW>
0.175722

>  <SCORE.INTRA.VDW.0>
-2.78316

>  <SCORE.INTRA.norm>
0.136057

>  <SCORE.RESTR>
0.213897

>  <SCORE.RESTR.CAVITY>
0.213897

>  <SCORE.RESTR.norm>
0.00427794

>  <SCORE.SYSTEM>
0

>  <SCORE.SYSTEM.CONST>
0

>  <SCORE.SYSTEM.DIHEDRAL>
0

>  <SCORE.SYSTEM.norm>
0

>  <SCORE.heavy>
50

>  <SCORE.norm>
0.398052

$$$$
