FB1.pdb
  RxDock  10102000073D
librxdock.so/0.1.0
 59 58  0  0  0  0  0  0  0  0999 V2000
   -0.4773   -4.0082    3.7492 C   0  0  0  0  0  0
   -0.4876   -5.2493    4.6386 C   0  0  0  0  0  0
    0.6845   -6.1908    4.3159 C   0  0  0  0  0  0
    0.9710   -7.2254    5.4326 C   0  0  0  0  0  0
   -0.2412   -8.1482    5.8064 C   0  0  0  0  0  0
    0.2073   -9.6209    5.6627 C   0  0  0  0  0  0
   -0.8244   -7.8714    7.2559 C   0  0  0  0  0  0
   -0.0089   -6.8512    8.1835 C   0  0  0  0  0  0
    1.4862   -7.0623    8.6816 C   0  0  0  0  0  0
    1.7237   -6.8347   10.2981 C   0  0  0  0  0  0
    1.8185   -5.3339   10.5679 C   0  0  0  0  0  0
    0.6357   -7.4847   11.2670 C   0  0  0  0  0  0
    0.7293   -8.9883   11.8578 C   0  0  0  0  0  0
    2.0307   -9.5482   12.5278 C   0  0  0  0  0  0
    2.9951  -10.4727   11.6535 C   0  0  0  0  0  0
    3.5048  -10.1054   10.2044 C   0  0  0  0  0  0
    4.7510   -9.1958   10.0400 C   0  0  0  0  0  0
    5.0454   -8.6583    8.5862 C   0  0  0  0  0  0
    6.5226   -8.4802    8.2138 C   0  0  0  0  0  0
    7.2999   -9.7127    7.6708 C   0  0  0  0  0  0
    8.8508   -9.6732    7.5347 C   0  0  0  0  0  0
    9.4388   -8.4552    6.8361 C   0  0  0  0  0  0
    9.4988   -9.8956    8.8413 N   0  0  0  0  0  0
    7.0339  -10.7671    8.6306 O   0  0  0  0  0  0
    4.4465   -9.5623    7.6514 O   0  0  0  0  0  0
   -0.2755   -9.0452   12.8843 O   0  0  0  0  0  0
    0.0261   -5.5881    7.4653 O   0  0  0  0  0  0
   -0.4513   -4.4952    8.1158 C   0  0  0  0  0  0
   -0.9702   -4.4823    9.2158 O   0  0  0  0  0  0
   -0.1401   -3.2768    7.2911 C   0  0  0  0  0  0
    1.2438   -2.6876    7.6072 C   0  0  0  0  0  0
    2.3871   -3.6471    7.2527 C   0  0  0  0  0  0
    3.6710   -3.2423    7.9390 C   0  0  0  0  0  0
    4.6914   -2.9260    7.3369 O   0  0  0  0  0  0
    3.5898   -3.2597    9.2776 O   0  0  0  0  0  0
    1.3568   -1.4046    6.7723 C   0  0  0  0  0  0
    0.5909   -0.4606    6.8931 O   0  0  0  0  0  0
    2.3387   -1.4229    5.8604 O   0  0  0  0  0  0
   -2.2676   -7.5347    7.1971 O   0  0  0  0  0  0
   -3.0220   -7.6635    8.3513 C   0  0  0  0  0  0
   -2.6674   -8.2757    9.3503 O   0  0  0  0  0  0
   -4.3743   -6.9458    8.2482 C   0  0  0  0  0  0
   -5.1799   -7.2040    6.9371 C   0  0  0  0  0  0
   -5.9229   -8.5452    6.7970 C   0  0  0  0  0  0
   -5.0108   -9.6883    6.4570 C   0  0  0  0  0  0
   -3.9746   -9.6069    5.8118 O   0  0  0  0  0  0
   -5.4408  -10.8553    6.9607 O   0  0  0  0  0  0
   -6.1740   -6.0950    6.5708 C   0  0  0  0  0  0
   -7.2603   -5.9797    7.1032 O   0  0  0  0  0  0
   -5.7223   -5.1809    5.6867 O   0  0  0  0  0  0
   10.5095   -9.8313    8.7281 H   0  0  0  0  0  0
    9.3270  -10.8610    9.1309 H   0  0  0  0  0  0
    7.4158  -10.4374    9.4714 H   0  0  0  0  0  0
    3.4786   -9.5109    7.7559 H   0  0  0  0  0  0
   -0.3578   -9.9694   13.1736 H   0  0  0  0  0  0
    4.4231   -3.0653    9.7481 H   0  0  0  0  0  0
    3.1786   -1.8439    6.1706 H   0  0  0  0  0  0
   -4.8248  -11.5457    6.6363 H   0  0  0  0  0  0
   -4.8098   -5.3334    5.3545 H   0  0  0  0  0  0
  1  2  1  0  0  0
  2  3  1  0  0  0
  3  4  1  0  0  0
  4  5  1  0  0  0
  5  6  1  0  0  0
  5  7  1  0  0  0
  7  8  1  0  0  0
  7 39  1  0  0  0
  8  9  1  0  0  0
  8 27  1  0  0  0
  9 10  1  0  0  0
 10 11  1  0  0  0
 10 12  1  0  0  0
 12 13  1  0  0  0
 13 14  1  0  0  0
 13 26  1  0  0  0
 14 15  1  0  0  0
 15 16  1  0  0  0
 16 17  1  0  0  0
 17 18  1  0  0  0
 18 19  1  0  0  0
 18 25  1  0  0  0
 19 20  1  0  0  0
 20 21  1  0  0  0
 20 24  1  0  0  0
 21 22  1  0  0  0
 21 23  1  0  0  0
 23 51  1  0  0  0
 23 52  1  0  0  0
 24 53  1  0  0  0
 25 54  1  0  0  0
 26 55  1  0  0  0
 27 28  1  0  0  0
 28 29  2  0  0  0
 28 30  1  0  0  0
 30 31  1  0  0  0
 31 32  1  0  0  0
 31 36  1  0  0  0
 32 33  1  0  0  0
 33 34  2  0  0  0
 33 35  1  0  0  0
 35 56  1  0  0  0
 36 37  2  0  0  0
 36 38  1  0  0  0
 38 57  1  0  0  0
 39 40  1  0  0  0
 40 41  2  0  0  0
 40 42  1  0  0  0
 42 43  1  0  0  0
 43 44  1  0  0  0
 43 48  1  0  0  0
 44 45  1  0  0  0
 45 46  2  0  0  0
 45 47  1  0  0  0
 47 58  1  0  0  0
 48 49  2  0  0  0
 48 50  1  0  0  0
 50 59  1  0  0  0
M  END
>  <AUTHOR>
    GENERATED BY OPEN BABEL 2.4.1

>  <CHROM.1>
162.82604767,57.48108377,124.72957730,-7.31950978,-61.91078012,160.57672426
-130.86188932,124.44171728,-79.84556206,89.28123328,48.64296917,-99.19575433
171.05619202,49.33506067,84.13219362,-169.19961090,-146.57454925,85.27550632
66.36323956,-168.22125548,-48.90208186,-62.30874130,-177.99265286,-4.12584859
-87.96707049,64.04326507,-162.80141776,60.39320667,-118.66296904,175.75874981
-40.02799672,-15.04923016,46.93893509,76.91749860,-77.13297299,-78.80964420
-30.14546297,175.99918677,1.33598358,0.79106735,-6.90285617,7.91179055,-2.94295522
0.10780664,2.78871370

>  <COMPND>
    UNNAMED

>  <MASTER>
        0    0    0    0    0    0    0    0  109    0  109    0

>  <Name>
FB1.pdb

>  <RI>
0

>  <Rbt.Current_Directory>
/home/fc/tossine/F10/p3/2_clust03

>  <Rbt.Executable>
rbdock/0.1.0

>  <Rbt.Library>
librxdock.so/0.1.0

>  <Rbt.Parameter_File>
/cluster/rxdock/data/scripts/dock.prm

>  <Rbt.Receptor>
rx_1.prm

>  <SCORE>
13.5731

>  <SCORE.INTER>
-4.0417

>  <SCORE.INTER.CONST>
1

>  <SCORE.INTER.POLAR>
-2.78934

>  <SCORE.INTER.REPUL>
0.188845

>  <SCORE.INTER.ROT>
32

>  <SCORE.INTER.VDW>
-32.9022

>  <SCORE.INTER.norm>
-0.080834

>  <SCORE.INTRA>
16.9072

>  <SCORE.INTRA.DIHEDRAL>
28.153

>  <SCORE.INTRA.DIHEDRAL.0>
47.3121

>  <SCORE.INTRA.POLAR>
1.46034

>  <SCORE.INTRA.POLAR.0>
-1.47808

>  <SCORE.INTRA.REPUL>
0

>  <SCORE.INTRA.REPUL.0>
0

>  <SCORE.INTRA.VDW>
-2.13443

>  <SCORE.INTRA.VDW.0>
-2.78316

>  <SCORE.INTRA.norm>
0.338144

>  <SCORE.RESTR>
0.707612

>  <SCORE.RESTR.CAVITY>
0.707612

>  <SCORE.RESTR.norm>
0.0141522

>  <SCORE.SYSTEM>
0

>  <SCORE.SYSTEM.CONST>
0

>  <SCORE.SYSTEM.DIHEDRAL>
0

>  <SCORE.SYSTEM.norm>
0

>  <SCORE.heavy>
50

>  <SCORE.norm>
0.271462

$$$$
