FB1.pdb
  RxDock  10102000103D
librxdock.so/0.1.0
 59 58  0  0  0  0  0  0  0  0999 V2000
   -5.4589  -13.3098    7.7174 C   0  0  0  0  0  0
   -5.4432  -12.3888    8.9351 C   0  0  0  0  0  0
   -5.0295  -10.9561    8.5601 C   0  0  0  0  0  0
   -3.5559  -10.8402    8.0965 C   0  0  0  0  0  0
   -3.0119   -9.3735    7.9818 C   0  0  0  0  0  0
   -2.8247   -8.8120    9.4102 C   0  0  0  0  0  0
   -1.6673   -9.2603    7.1469 C   0  0  0  0  0  0
   -1.1438   -7.7841    6.8109 C   0  0  0  0  0  0
   -0.5682   -7.3153    5.4048 C   0  0  0  0  0  0
    0.1970   -5.8539    5.4142 C   0  0  0  0  0  0
    1.3350   -5.9088    6.4322 C   0  0  0  0  0  0
    0.7591   -5.3454    4.0106 C   0  0  0  0  0  0
   -0.1332   -4.5785    2.8996 C   0  0  0  0  0  0
   -0.2457   -3.0163    2.8448 C   0  0  0  0  0  0
    1.0978   -2.1570    2.9217 C   0  0  0  0  0  0
    2.3290   -2.3439    1.9502 C   0  0  0  0  0  0
    3.7182   -1.7879    2.3608 C   0  0  0  0  0  0
    4.3832   -2.4260    3.6414 C   0  0  0  0  0  0
    4.0554   -1.7569    4.9820 C   0  0  0  0  0  0
    2.5815   -1.3466    5.2605 C   0  0  0  0  0  0
    1.8584   -1.8234    6.5548 C   0  0  0  0  0  0
    2.7301   -2.0078    7.7891 C   0  0  0  0  0  0
    0.6959   -0.9657    6.8536 N   0  0  0  0  0  0
    2.6151    0.1000    5.3604 O   0  0  0  0  0  0
    3.9837   -3.7992    3.7088 O   0  0  0  0  0  0
    0.4416   -4.9578    1.6378 O   0  0  0  0  0  0
   -2.2629   -6.8901    7.0576 O   0  0  0  0  0  0
   -3.2747   -6.9038    6.1514 C   0  0  0  0  0  0
   -3.7592   -7.8895    5.6288 O   0  0  0  0  0  0
   -3.7725   -5.4961    5.9725 C   0  0  0  0  0  0
   -3.9948   -4.7739    7.3110 C   0  0  0  0  0  0
   -4.1527   -3.2573    7.1425 C   0  0  0  0  0  0
   -2.8558   -2.5386    7.4340 C   0  0  0  0  0  0
   -2.1554   -2.0252    6.5683 O   0  0  0  0  0  0
   -2.5406   -2.5127    8.7374 O   0  0  0  0  0  0
   -5.2771   -5.3727    7.9054 C   0  0  0  0  0  0
   -6.3519   -4.7921    7.8939 O   0  0  0  0  0  0
   -5.1115   -6.5695    8.4852 O   0  0  0  0  0  0
   -0.5999  -10.1068    7.7335 O   0  0  0  0  0  0
    0.6691  -10.0434    7.1824 C   0  0  0  0  0  0
    0.9237   -9.6014    6.0697 O   0  0  0  0  0  0
    1.7445  -10.5941    8.1282 C   0  0  0  0  0  0
    2.7553   -9.5457    8.6882 C   0  0  0  0  0  0
    2.2447   -8.5333    9.7297 C   0  0  0  0  0  0
    3.2373   -7.4467   10.0272 C   0  0  0  0  0  0
    3.9504   -7.3837   11.0191 O   0  0  0  0  0  0
    3.2892   -6.5199    9.0583 O   0  0  0  0  0  0
    4.0558  -10.1444    9.2383 C   0  0  0  0  0  0
    4.2562  -10.3099   10.4253 O   0  0  0  0  0  0
    4.9318  -10.5798    8.3086 O   0  0  0  0  0  0
    0.5040   -0.9997    7.8538 H   0  0  0  0  0  0
   -0.1321   -1.3724    6.4125 H   0  0  0  0  0  0
    1.6778    0.3607    5.4823 H   0  0  0  0  0  0
    4.4444   -4.2851    3.0002 H   0  0  0  0  0  0
    1.3967   -5.0822    1.7676 H   0  0  0  0  0  0
   -3.1417   -3.0137    9.3215 H   0  0  0  0  0  0
   -5.9314   -6.9449    8.8922 H   0  0  0  0  0  0
    4.1044   -5.9973    9.2124 H   0  0  0  0  0  0
    4.6231  -10.5140    7.3777 H   0  0  0  0  0  0
  1  2  1  0  0  0
  2  3  1  0  0  0
  3  4  1  0  0  0
  4  5  1  0  0  0
  5  6  1  0  0  0
  5  7  1  0  0  0
  7  8  1  0  0  0
  7 39  1  0  0  0
  8  9  1  0  0  0
  8 27  1  0  0  0
  9 10  1  0  0  0
 10 11  1  0  0  0
 10 12  1  0  0  0
 12 13  1  0  0  0
 13 14  1  0  0  0
 13 26  1  0  0  0
 14 15  1  0  0  0
 15 16  1  0  0  0
 16 17  1  0  0  0
 17 18  1  0  0  0
 18 19  1  0  0  0
 18 25  1  0  0  0
 19 20  1  0  0  0
 20 21  1  0  0  0
 20 24  1  0  0  0
 21 22  1  0  0  0
 21 23  1  0  0  0
 23 51  1  0  0  0
 23 52  1  0  0  0
 24 53  1  0  0  0
 25 54  1  0  0  0
 26 55  1  0  0  0
 27 28  1  0  0  0
 28 29  2  0  0  0
 28 30  1  0  0  0
 30 31  1  0  0  0
 31 32  1  0  0  0
 31 36  1  0  0  0
 32 33  1  0  0  0
 33 34  2  0  0  0
 33 35  1  0  0  0
 35 56  1  0  0  0
 36 37  2  0  0  0
 36 38  1  0  0  0
 38 57  1  0  0  0
 39 40  1  0  0  0
 40 41  2  0  0  0
 40 42  1  0  0  0
 42 43  1  0  0  0
 43 44  1  0  0  0
 43 48  1  0  0  0
 44 45  1  0  0  0
 45 46  2  0  0  0
 45 47  1  0  0  0
 47 58  1  0  0  0
 48 49  2  0  0  0
 48 50  1  0  0  0
 50 59  1  0  0  0
M  END
>  <AUTHOR>
    GENERATED BY OPEN BABEL 2.4.1

>  <CHROM.1>
-67.10719960,-168.29551553,71.95627751,172.05355143,-136.90620373,-175.16593402
-167.37076537,-73.72706346,57.23368450,83.27454863,91.85130370,48.10133729
-32.64003270,54.82442029,-161.38247960,63.83795309,-89.87192453,43.68081150
71.59021138,126.50896365,31.77841558,176.71830190,-154.47414856,42.06714131
-46.80658873,165.42628762,-98.60718234,-103.81412297,107.46100612,4.52925092
178.29852259,-18.33608876,-112.31603829,71.26357658,-170.77198796,-100.57012631
-102.44941313,-165.44773076,-3.29745340,-0.18506723,-6.17433520,6.74116465
2.07339470,0.00161033,2.68837663

>  <COMPND>
    UNNAMED

>  <MASTER>
        0    0    0    0    0    0    0    0  109    0  109    0

>  <Name>
FB1.pdb

>  <RI>
0

>  <Rbt.Current_Directory>
/home/fc/tossine/F10/p3/2_clust03

>  <Rbt.Executable>
rbdock/0.1.0

>  <Rbt.Library>
librxdock.so/0.1.0

>  <Rbt.Parameter_File>
/cluster/rxdock/data/scripts/dock.prm

>  <Rbt.Receptor>
rx_1.prm

>  <SCORE>
6.14601

>  <SCORE.INTER>
-2.3357

>  <SCORE.INTER.CONST>
1

>  <SCORE.INTER.POLAR>
-4.20162

>  <SCORE.INTER.REPUL>
0.39639

>  <SCORE.INTER.ROT>
32

>  <SCORE.INTER.VDW>
-27.4321

>  <SCORE.INTER.norm>
-0.046714

>  <SCORE.INTRA>
8.45314

>  <SCORE.INTRA.DIHEDRAL>
15.1705

>  <SCORE.INTRA.DIHEDRAL.0>
47.3121

>  <SCORE.INTRA.POLAR>
0.281395

>  <SCORE.INTRA.POLAR.0>
-1.47808

>  <SCORE.INTRA.REPUL>
0

>  <SCORE.INTRA.REPUL.0>
0

>  <SCORE.INTRA.VDW>
-0.0888669

>  <SCORE.INTRA.VDW.0>
-2.78316

>  <SCORE.INTRA.norm>
0.169063

>  <SCORE.RESTR>
0.0285733

>  <SCORE.RESTR.CAVITY>
0.0285733

>  <SCORE.RESTR.norm>
0.000571467

>  <SCORE.SYSTEM>
0

>  <SCORE.SYSTEM.CONST>
0

>  <SCORE.SYSTEM.DIHEDRAL>
0

>  <SCORE.SYSTEM.norm>
0

>  <SCORE.heavy>
50

>  <SCORE.norm>
0.12292

$$$$
