FB1.pdb
  RxDock  10102001463D
librxdock.so/0.1.0
 59 58  0  0  0  0  0  0  0  0999 V2000
   -0.1452  -12.4028    7.5404 C   0  0  0  0  0  0
   -0.3494  -10.9369    7.9157 C   0  0  0  0  0  0
   -1.6170  -10.3548    7.2686 C   0  0  0  0  0  0
   -1.3424   -9.1204    6.3738 C   0  0  0  0  0  0
   -1.6260   -7.7350    7.0526 C   0  0  0  0  0  0
   -2.9843   -7.8228    7.7862 C   0  0  0  0  0  0
   -0.4764   -7.2670    8.0411 C   0  0  0  0  0  0
   -0.4551   -5.7177    8.4477 C   0  0  0  0  0  0
    0.6672   -4.6752    8.0215 C   0  0  0  0  0  0
    1.8105   -5.2620    6.9872 C   0  0  0  0  0  0
    1.1153   -5.7265    5.7085 C   0  0  0  0  0  0
    3.0012   -4.2669    6.6174 C   0  0  0  0  0  0
    3.5171   -3.0719    7.5789 C   0  0  0  0  0  0
    4.3770   -1.8755    7.0446 C   0  0  0  0  0  0
    4.2534   -1.4836    5.5018 C   0  0  0  0  0  0
    2.8833   -1.2557    4.7498 C   0  0  0  0  0  0
    2.8160   -1.4403    3.2107 C   0  0  0  0  0  0
    3.7708   -2.5314    2.5885 C   0  0  0  0  0  0
    5.2766   -2.2762    2.7290 C   0  0  0  0  0  0
    5.9613   -1.3231    1.7086 C   0  0  0  0  0  0
    5.4370    0.1294    1.5074 C   0  0  0  0  0  0
    5.0873    0.9045    2.7701 C   0  0  0  0  0  0
    6.3531    0.9047    0.6495 N   0  0  0  0  0  0
    7.3163   -1.1681    2.2024 O   0  0  0  0  0  0
    3.4635   -3.7884    3.2011 O   0  0  0  0  0  0
    2.3184   -2.4706    8.0966 O   0  0  0  0  0  0
   -1.6898   -5.1464    7.9364 O   0  0  0  0  0  0
   -2.1279   -4.0010    8.5206 C   0  0  0  0  0  0
   -1.6052   -3.4248    9.4556 O   0  0  0  0  0  0
   -3.3193   -3.5000    7.7518 C   0  0  0  0  0  0
   -3.8657   -2.1751    8.3072 C   0  0  0  0  0  0
   -2.7682   -1.1211    8.5018 C   0  0  0  0  0  0
   -2.9842   -0.3379    9.7759 C   0  0  0  0  0  0
   -3.6921    0.6609    9.8463 O   0  0  0  0  0  0
   -2.3264   -0.8415   10.8307 O   0  0  0  0  0  0
   -4.8939   -1.6795    7.2809 C   0  0  0  0  0  0
   -6.0311   -1.3500    7.5818 O   0  0  0  0  0  0
   -4.4570   -1.6841    6.0140 O   0  0  0  0  0  0
   -0.3974   -8.1528    9.2281 O   0  0  0  0  0  0
    0.5453   -7.8676   10.2017 C   0  0  0  0  0  0
    0.4945   -6.9083   10.9604 O   0  0  0  0  0  0
    1.6821   -8.8977   10.2333 C   0  0  0  0  0  0
    2.1380   -9.4460    8.8455 C   0  0  0  0  0  0
    2.6528   -8.4370    7.8028 C   0  0  0  0  0  0
    3.8305   -7.6418    8.2876 C   0  0  0  0  0  0
    5.0020   -7.9871    8.2181 O   0  0  0  0  0  0
    3.4712   -6.4592    8.8099 O   0  0  0  0  0  0
    3.1609  -10.5867    8.9154 C   0  0  0  0  0  0
    3.1497  -11.5313    8.1509 O   0  0  0  0  0  0
    4.1496  -10.4238    9.8193 O   0  0  0  0  0  0
    7.2700    0.4600    0.6523 H   0  0  0  0  0  0
    6.5036    1.8213    1.0768 H   0  0  0  0  0  0
    7.8370   -1.8356    1.7076 H   0  0  0  0  0  0
    3.9613   -4.4843    2.7338 H   0  0  0  0  0  0
    2.2180   -2.7489    9.0224 H   0  0  0  0  0  0
   -1.8442   -1.6737   10.6624 H   0  0  0  0  0  0
   -3.6783   -1.0972    5.8466 H   0  0  0  0  0  0
    2.5738   -6.5789    9.1861 H   0  0  0  0  0  0
    4.5925  -11.2516   10.1107 H   0  0  0  0  0  0
  1  2  1  0  0  0
  2  3  1  0  0  0
  3  4  1  0  0  0
  4  5  1  0  0  0
  5  6  1  0  0  0
  5  7  1  0  0  0
  7  8  1  0  0  0
  7 39  1  0  0  0
  8  9  1  0  0  0
  8 27  1  0  0  0
  9 10  1  0  0  0
 10 11  1  0  0  0
 10 12  1  0  0  0
 12 13  1  0  0  0
 13 14  1  0  0  0
 13 26  1  0  0  0
 14 15  1  0  0  0
 15 16  1  0  0  0
 16 17  1  0  0  0
 17 18  1  0  0  0
 18 19  1  0  0  0
 18 25  1  0  0  0
 19 20  1  0  0  0
 20 21  1  0  0  0
 20 24  1  0  0  0
 21 22  1  0  0  0
 21 23  1  0  0  0
 23 51  1  0  0  0
 23 52  1  0  0  0
 24 53  1  0  0  0
 25 54  1  0  0  0
 26 55  1  0  0  0
 27 28  1  0  0  0
 28 29  2  0  0  0
 28 30  1  0  0  0
 30 31  1  0  0  0
 31 32  1  0  0  0
 31 36  1  0  0  0
 32 33  1  0  0  0
 33 34  2  0  0  0
 33 35  1  0  0  0
 35 56  1  0  0  0
 36 37  2  0  0  0
 36 38  1  0  0  0
 38 57  1  0  0  0
 39 40  1  0  0  0
 40 41  2  0  0  0
 40 42  1  0  0  0
 42 43  1  0  0  0
 43 44  1  0  0  0
 43 48  1  0  0  0
 44 45  1  0  0  0
 45 46  2  0  0  0
 45 47  1  0  0  0
 47 58  1  0  0  0
 48 49  2  0  0  0
 48 50  1  0  0  0
 50 59  1  0  0  0
M  END
>  <AUTHOR>
    GENERATED BY OPEN BABEL 2.4.1

>  <CHROM.1>
-122.02132976,-99.21651099,-45.12168989,162.79590082,-112.33552438,-179.02862879
4.83740584,158.06097909,59.89349795,27.11084064,-161.84170853,25.30638744
105.26931924,49.73580700,-155.66078519,32.37002102,-64.01243621,-82.09058161
172.22024338,55.62559609,43.49275621,95.14695670,-20.45831539,-2.09838792
-178.09901268,49.81204474,-140.42513353,128.58633556,-86.63402371,-3.87788704
-61.65519295,70.20857703,37.16180215,58.94928903,58.24742747,142.29899069
85.84345759,29.75687007,157.95455238,1.03677373,-4.79733154,7.05137625,-2.08860274
0.46704450,-0.37041955

>  <COMPND>
    UNNAMED

>  <MASTER>
        0    0    0    0    0    0    0    0  109    0  109    0

>  <Name>
FB1.pdb

>  <RI>
0

>  <Rbt.Current_Directory>
/home/fc/tossine/F10/p3/2_clust03

>  <Rbt.Executable>
rbdock/0.1.0

>  <Rbt.Library>
librxdock.so/0.1.0

>  <Rbt.Parameter_File>
/cluster/rxdock/data/scripts/dock.prm

>  <Rbt.Receptor>
rx_3.prm

>  <SCORE>
34.9619

>  <SCORE.INTER>
-3.44346

>  <SCORE.INTER.CONST>
1

>  <SCORE.INTER.POLAR>
-3.40457

>  <SCORE.INTER.REPUL>
0.167741

>  <SCORE.INTER.ROT>
32

>  <SCORE.INTER.VDW>
-30.1066

>  <SCORE.INTER.norm>
-0.0688693

>  <SCORE.INTRA>
38.3939

>  <SCORE.INTRA.DIHEDRAL>
70.8833

>  <SCORE.INTRA.DIHEDRAL.0>
47.3121

>  <SCORE.INTRA.POLAR>
0.493113

>  <SCORE.INTRA.POLAR.0>
-1.47808

>  <SCORE.INTRA.REPUL>
0

>  <SCORE.INTRA.REPUL.0>
0

>  <SCORE.INTRA.VDW>
1.27564

>  <SCORE.INTRA.VDW.0>
-2.78316

>  <SCORE.INTRA.norm>
0.767877

>  <SCORE.RESTR>
0.0115232

>  <SCORE.RESTR.CAVITY>
0.0115232

>  <SCORE.RESTR.norm>
0.000230464

>  <SCORE.SYSTEM>
0

>  <SCORE.SYSTEM.CONST>
0

>  <SCORE.SYSTEM.DIHEDRAL>
0

>  <SCORE.SYSTEM.norm>
0

>  <SCORE.heavy>
50

>  <SCORE.norm>
0.699239

$$$$
