FB1.pdb
  RxDock  10092023073D
librxdock.so/0.1.0
 59 58  0  0  0  0  0  0  0  0999 V2000
    0.0686   -2.4662    2.6975 C   0  0  0  0  0  0
   -0.1862   -3.2098    4.0065 C   0  0  0  0  0  0
   -0.8484   -4.5765    3.7653 C   0  0  0  0  0  0
   -1.0058   -5.4223    5.0535 C   0  0  0  0  0  0
   -1.7898   -4.7184    6.2155 C   0  0  0  0  0  0
   -3.2872   -4.6727    5.8329 C   0  0  0  0  0  0
   -1.5859   -5.4120    7.6280 C   0  0  0  0  0  0
   -0.2641   -6.2970    7.8179 C   0  0  0  0  0  0
    0.8188   -6.0901    8.9637 C   0  0  0  0  0  0
    1.8158   -4.7921    8.7576 C   0  0  0  0  0  0
    2.7886   -4.7361    9.9344 C   0  0  0  0  0  0
    2.6307   -4.7420    7.3871 C   0  0  0  0  0  0
    1.9583   -4.9097    5.9248 C   0  0  0  0  0  0
    2.7547   -4.6533    4.5996 C   0  0  0  0  0  0
    3.4030   -3.2121    4.3723 C   0  0  0  0  0  0
    4.6581   -2.9371    3.4537 C   0  0  0  0  0  0
    4.4483   -2.5932    1.9553 C   0  0  0  0  0  0
    4.4698   -1.0627    1.5730 C   0  0  0  0  0  0
    3.4975   -0.1572    2.3394 C   0  0  0  0  0  0
    3.3249    1.3121    1.8601 C   0  0  0  0  0  0
    2.0943    1.7243    0.9992 C   0  0  0  0  0  0
    1.2008    0.5933    0.5092 C   0  0  0  0  0  0
    1.3014    2.7653    1.6803 N   0  0  0  0  0  0
    3.2046    2.0853    3.0814 O   0  0  0  0  0  0
    5.8006   -0.5754    1.7756 O   0  0  0  0  0  0
    1.5548   -6.2879    5.8594 O   0  0  0  0  0  0
   -0.7144   -7.6679    7.9918 O   0  0  0  0  0  0
   -1.2539   -8.2822    6.9070 C   0  0  0  0  0  0
   -0.8443   -8.2140    5.7637 O   0  0  0  0  0  0
   -2.3916   -9.1506    7.3685 C   0  0  0  0  0  0
   -3.6510   -8.3397    7.7132 C   0  0  0  0  0  0
   -4.5784   -8.1509    6.5059 C   0  0  0  0  0  0
   -5.8580   -7.4534    6.9052 C   0  0  0  0  0  0
   -5.9916   -6.2345    6.9148 O   0  0  0  0  0  0
   -6.8418   -8.2977    7.2490 O   0  0  0  0  0  0
   -4.3740   -9.1304    8.8124 C   0  0  0  0  0  0
   -4.3922  -10.3512    8.8536 O   0  0  0  0  0  0
   -5.0290   -8.3702    9.7007 O   0  0  0  0  0  0
   -1.7650   -4.4391    8.7331 O   0  0  0  0  0  0
   -1.1709   -3.1935    8.6174 C   0  0  0  0  0  0
   -0.2527   -2.9283    7.8525 O   0  0  0  0  0  0
   -1.7939   -2.1592    9.5641 C   0  0  0  0  0  0
   -3.2319   -1.6807    9.1929 C   0  0  0  0  0  0
   -4.1103   -2.6192    8.3455 C   0  0  0  0  0  0
   -5.5655   -2.2512    8.3807 C   0  0  0  0  0  0
   -6.0982   -1.3817    7.7049 O   0  0  0  0  0  0
   -6.2648   -3.0052    9.2426 O   0  0  0  0  0  0
   -4.0792   -1.2220   10.3861 C   0  0  0  0  0  0
   -3.8369   -1.5469   11.5317 O   0  0  0  0  0  0
   -5.0585   -0.3398   10.0963 O   0  0  0  0  0  0
    1.9211    3.5202    1.9714 H   0  0  0  0  0  0
    0.9321    2.3772    2.5512 H   0  0  0  0  0  0
    4.0882    2.0218    3.5016 H   0  0  0  0  0  0
    5.9678    0.1320    1.1259 H   0  0  0  0  0  0
    2.3542   -6.8307    5.7555 H   0  0  0  0  0  0
   -7.6913   -7.8754    7.4804 H   0  0  0  0  0  0
   -5.4838   -8.8774   10.4180 H   0  0  0  0  0  0
   -5.6206   -3.5969    9.6856 H   0  0  0  0  0  0
   -5.6074   -0.0559   10.8607 H   0  0  0  0  0  0
  1  2  1  0  0  0
  2  3  1  0  0  0
  3  4  1  0  0  0
  4  5  1  0  0  0
  5  6  1  0  0  0
  5  7  1  0  0  0
  7  8  1  0  0  0
  7 39  1  0  0  0
  8  9  1  0  0  0
  8 27  1  0  0  0
  9 10  1  0  0  0
 10 11  1  0  0  0
 10 12  1  0  0  0
 12 13  1  0  0  0
 13 14  1  0  0  0
 13 26  1  0  0  0
 14 15  1  0  0  0
 15 16  1  0  0  0
 16 17  1  0  0  0
 17 18  1  0  0  0
 18 19  1  0  0  0
 18 25  1  0  0  0
 19 20  1  0  0  0
 20 21  1  0  0  0
 20 24  1  0  0  0
 21 22  1  0  0  0
 21 23  1  0  0  0
 23 51  1  0  0  0
 23 52  1  0  0  0
 24 53  1  0  0  0
 25 54  1  0  0  0
 26 55  1  0  0  0
 27 28  1  0  0  0
 28 29  2  0  0  0
 28 30  1  0  0  0
 30 31  1  0  0  0
 31 32  1  0  0  0
 31 36  1  0  0  0
 32 33  1  0  0  0
 33 34  2  0  0  0
 33 35  1  0  0  0
 35 56  1  0  0  0
 36 37  2  0  0  0
 36 38  1  0  0  0
 38 57  1  0  0  0
 39 40  1  0  0  0
 40 41  2  0  0  0
 40 42  1  0  0  0
 42 43  1  0  0  0
 43 44  1  0  0  0
 43 48  1  0  0  0
 44 45  1  0  0  0
 45 46  2  0  0  0
 45 47  1  0  0  0
 47 58  1  0  0  0
 48 49  2  0  0  0
 48 50  1  0  0  0
 50 59  1  0  0  0
M  END
>  <AUTHOR>
    GENERATED BY OPEN BABEL 2.4.1

>  <CHROM.1>
174.63459431,55.75542201,72.70235514,22.85428807,124.35003761,-44.58003974
-74.75348988,69.50802699,-179.99329543,51.06804619,171.11473054,-58.53487016
-73.12015570,154.55179078,90.42593816,97.40481625,-54.64060655,-171.04057289
148.61099499,100.63861467,-8.01007994,67.57819407,50.71146231,41.47055023
75.86478166,89.82187169,175.17767207,-35.29295673,88.70996961,-177.85121613
-179.08223066,-18.78825675,-71.46335922,24.64676226,163.52727330,-20.31867933
81.64508079,3.07407741,179.26596485,-0.95378592,-4.00608838,6.37449715,0.64455775
0.58062345,-0.16260859

>  <COMPND>
    UNNAMED

>  <MASTER>
        0    0    0    0    0    0    0    0  109    0  109    0

>  <Name>
FB1.pdb

>  <RI>
0

>  <Rbt.Current_Directory>
/home/fc/tossine/F10/p3/2_clust03

>  <Rbt.Executable>
rbdock/0.1.0

>  <Rbt.Library>
librxdock.so/0.1.0

>  <Rbt.Parameter_File>
/cluster/rxdock/data/scripts/dock.prm

>  <Rbt.Receptor>
rx_0.prm

>  <SCORE>
7.02744

>  <SCORE.INTER>
-6.57723

>  <SCORE.INTER.CONST>
1

>  <SCORE.INTER.POLAR>
-3.66571

>  <SCORE.INTER.REPUL>
0.340497

>  <SCORE.INTER.ROT>
32

>  <SCORE.INTER.VDW>
-33.2163

>  <SCORE.INTER.norm>
-0.131545

>  <SCORE.INTRA>
13.0799

>  <SCORE.INTRA.DIHEDRAL>
21.0694

>  <SCORE.INTRA.DIHEDRAL.0>
47.3121

>  <SCORE.INTRA.POLAR>
1.47808

>  <SCORE.INTRA.POLAR.0>
-1.47808

>  <SCORE.INTRA.REPUL>
0

>  <SCORE.INTRA.REPUL.0>
0

>  <SCORE.INTRA.VDW>
-2.48024

>  <SCORE.INTRA.VDW.0>
-2.78316

>  <SCORE.INTRA.norm>
0.261598

>  <SCORE.RESTR>
0.524764

>  <SCORE.RESTR.CAVITY>
0.524764

>  <SCORE.RESTR.norm>
0.0104953

>  <SCORE.SYSTEM>
0

>  <SCORE.SYSTEM.CONST>
0

>  <SCORE.SYSTEM.DIHEDRAL>
0

>  <SCORE.SYSTEM.norm>
0

>  <SCORE.heavy>
50

>  <SCORE.norm>
0.140549

$$$$
