FB1.pdb
  RxDock  10102002243D
librxdock.so/0.1.0
 59 58  0  0  0  0  0  0  0  0999 V2000
    0.0427  -12.1615    5.6629 C   0  0  0  0  0  0
   -0.3445  -10.8418    6.3262 C   0  0  0  0  0  0
    0.4486   -9.6589    5.7465 C   0  0  0  0  0  0
    0.0126   -8.2854    6.3148 C   0  0  0  0  0  0
   -1.3541   -7.7459    5.7656 C   0  0  0  0  0  0
   -2.4601   -8.0952    6.7880 C   0  0  0  0  0  0
   -1.3411   -6.1902    5.4529 C   0  0  0  0  0  0
   -1.2894   -5.1979    6.7094 C   0  0  0  0  0  0
   -2.5114   -4.8812    7.6762 C   0  0  0  0  0  0
   -3.8828   -4.3597    6.9223 C   0  0  0  0  0  0
   -4.3957   -5.4799    6.0189 C   0  0  0  0  0  0
   -5.0609   -3.8581    7.8738 C   0  0  0  0  0  0
   -5.0311   -2.4662    8.6987 C   0  0  0  0  0  0
   -3.7458   -1.9526    9.4337 C   0  0  0  0  0  0
   -3.8834   -0.6991   10.4131 C   0  0  0  0  0  0
   -4.7959    0.5575   10.1253 C   0  0  0  0  0  0
   -4.2514    1.9807   10.4173 C   0  0  0  0  0  0
   -2.6872    2.1205   10.5686 C   0  0  0  0  0  0
   -2.0514    3.3628    9.9323 C   0  0  0  0  0  0
   -0.8298    3.1654    8.9905 C   0  0  0  0  0  0
    0.6065    3.0254    9.5761 C   0  0  0  0  0  0
    1.4064    4.3122    9.7237 C   0  0  0  0  0  0
    0.5862    2.2689   10.8424 N   0  0  0  0  0  0
   -1.0848    1.9067    8.3165 O   0  0  0  0  0  0
   -2.3765    2.1158   11.9662 O   0  0  0  0  0  0
   -5.3369   -1.4533    7.7255 O   0  0  0  0  0  0
   -0.2564   -5.7136    7.5923 O   0  0  0  0  0  0
    0.7965   -4.8960    7.8535 C   0  0  0  0  0  0
    1.2981   -4.1004    7.0823 O   0  0  0  0  0  0
    1.1817   -5.0626    9.2976 C   0  0  0  0  0  0
    2.6168   -5.5856    9.4691 C   0  0  0  0  0  0
    2.8168   -6.9720    8.8435 C   0  0  0  0  0  0
    3.8702   -7.7591    9.5879 C   0  0  0  0  0  0
    4.7400   -8.4220    9.0331 O   0  0  0  0  0  0
    3.7658   -7.6633   10.9216 O   0  0  0  0  0  0
    3.5251   -4.5606    8.7761 C   0  0  0  0  0  0
    4.3168   -4.8592    7.8950 O   0  0  0  0  0  0
    3.4144   -3.3127    9.2519 O   0  0  0  0  0  0
   -0.3103   -5.8563    4.4401 O   0  0  0  0  0  0
   -0.1564   -4.5310    4.0686 C   0  0  0  0  0  0
   -0.9774   -3.6483    4.2812 O   0  0  0  0  0  0
    1.1752   -4.2770    3.3498 C   0  0  0  0  0  0
    1.0968   -3.3803    2.0754 C   0  0  0  0  0  0
    0.2343   -2.1065    2.1392 C   0  0  0  0  0  0
    0.0803   -1.4350    0.8051 C   0  0  0  0  0  0
    0.1319   -0.2296    0.6028 O   0  0  0  0  0  0
   -0.1086   -2.3124   -0.1923 O   0  0  0  0  0  0
    2.4578   -2.9771    1.4946 C   0  0  0  0  0  0
    2.8829   -3.4144    0.4435 O   0  0  0  0  0  0
    3.1164   -2.0157    2.1753 O   0  0  0  0  0  0
   -0.1313    1.5472   10.7890 H   0  0  0  0  0  0
    0.2768    2.8930   11.5909 H   0  0  0  0  0  0
   -0.5874    1.9727    7.4741 H   0  0  0  0  0  0
   -1.4102    2.2014   12.0633 H   0  0  0  0  0  0
   -6.1008   -1.7559    7.2064 H   0  0  0  0  0  0
    3.1517   -6.9756   11.2431 H   0  0  0  0  0  0
    2.7532   -3.2088    9.9805 H   0  0  0  0  0  0
   -0.3795   -1.7916   -0.9776 H   0  0  0  0  0  0
    2.6890   -1.7261    3.0118 H   0  0  0  0  0  0
  1  2  1  0  0  0
  2  3  1  0  0  0
  3  4  1  0  0  0
  4  5  1  0  0  0
  5  6  1  0  0  0
  5  7  1  0  0  0
  7  8  1  0  0  0
  7 39  1  0  0  0
  8  9  1  0  0  0
  8 27  1  0  0  0
  9 10  1  0  0  0
 10 11  1  0  0  0
 10 12  1  0  0  0
 12 13  1  0  0  0
 13 14  1  0  0  0
 13 26  1  0  0  0
 14 15  1  0  0  0
 15 16  1  0  0  0
 16 17  1  0  0  0
 17 18  1  0  0  0
 18 19  1  0  0  0
 18 25  1  0  0  0
 19 20  1  0  0  0
 20 21  1  0  0  0
 20 24  1  0  0  0
 21 22  1  0  0  0
 21 23  1  0  0  0
 23 51  1  0  0  0
 23 52  1  0  0  0
 24 53  1  0  0  0
 25 54  1  0  0  0
 26 55  1  0  0  0
 27 28  1  0  0  0
 28 29  2  0  0  0
 28 30  1  0  0  0
 30 31  1  0  0  0
 31 32  1  0  0  0
 31 36  1  0  0  0
 32 33  1  0  0  0
 33 34  2  0  0  0
 33 35  1  0  0  0
 35 56  1  0  0  0
 36 37  2  0  0  0
 36 38  1  0  0  0
 38 57  1  0  0  0
 39 40  1  0  0  0
 40 41  2  0  0  0
 40 42  1  0  0  0
 42 43  1  0  0  0
 43 44  1  0  0  0
 43 48  1  0  0  0
 44 45  1  0  0  0
 45 46  2  0  0  0
 45 47  1  0  0  0
 47 58  1  0  0  0
 48 49  2  0  0  0
 48 50  1  0  0  0
 50 59  1  0  0  0
M  END
>  <AUTHOR>
    GENERATED BY OPEN BABEL 2.4.1

>  <CHROM.1>
175.65396691,-74.59211567,97.42096077,-70.67733619,-74.76860427,-179.09546035
-54.18024314,119.53982023,63.57525674,72.49764766,-41.48991151,-170.08650499
46.38056220,-39.02242566,-137.23214445,17.99719353,139.77812564,-129.25418001
179.95881059,-83.37910540,-91.53296864,154.71269391,35.11317253,-34.40790017
118.56316282,-61.60405156,-149.84449366,-124.62859929,-136.75272948,-11.42177758
-0.77881669,-16.63107799,135.89921776,43.94588266,-171.84367639,109.60552155
-138.13941125,168.65209944,4.74695269,-0.25387320,-3.43661096,6.90502684
0.12859087,-1.24798239,2.12140684

>  <COMPND>
    UNNAMED

>  <MASTER>
        0    0    0    0    0    0    0    0  109    0  109    0

>  <Name>
FB1.pdb

>  <RI>
0

>  <Rbt.Current_Directory>
/home/fc/tossine/F10/p3/2_clust03

>  <Rbt.Executable>
rbdock/0.1.0

>  <Rbt.Library>
librxdock.so/0.1.0

>  <Rbt.Parameter_File>
/cluster/rxdock/data/scripts/dock.prm

>  <Rbt.Receptor>
rx_4.prm

>  <SCORE>
24.5573

>  <SCORE.INTER>
4.69564

>  <SCORE.INTER.CONST>
1

>  <SCORE.INTER.POLAR>
-2.52689

>  <SCORE.INTER.REPUL>
2.16518

>  <SCORE.INTER.ROT>
32

>  <SCORE.INTER.VDW>
-34.9388

>  <SCORE.INTER.norm>
0.0939128

>  <SCORE.INTRA>
18.9157

>  <SCORE.INTRA.DIHEDRAL>
26.092

>  <SCORE.INTRA.DIHEDRAL.0>
47.3121

>  <SCORE.INTRA.POLAR>
1.47808

>  <SCORE.INTRA.POLAR.0>
-1.47808

>  <SCORE.INTRA.REPUL>
0

>  <SCORE.INTRA.REPUL.0>
0

>  <SCORE.INTRA.VDW>
0.84421

>  <SCORE.INTRA.VDW.0>
-2.78316

>  <SCORE.INTRA.norm>
0.378313

>  <SCORE.RESTR>
0.945989

>  <SCORE.RESTR.CAVITY>
0.945989

>  <SCORE.RESTR.norm>
0.0189198

>  <SCORE.SYSTEM>
0

>  <SCORE.SYSTEM.CONST>
0

>  <SCORE.SYSTEM.DIHEDRAL>
0

>  <SCORE.SYSTEM.norm>
0

>  <SCORE.heavy>
50

>  <SCORE.norm>
0.491146

$$$$
