FB1.pdb
  RxDock  10102000063D
librxdock.so/0.1.0
 59 58  0  0  0  0  0  0  0  0999 V2000
   -2.9089  -13.5169    9.8474 C   0  0  0  0  0  0
   -3.6353  -12.2999    9.2795 C   0  0  0  0  0  0
   -4.4429  -12.6552    8.0202 C   0  0  0  0  0  0
   -5.1231  -11.4316    7.3571 C   0  0  0  0  0  0
   -4.1404  -10.4193    6.6715 C   0  0  0  0  0  0
   -4.9582   -9.5205    5.7155 C   0  0  0  0  0  0
   -3.3116   -9.5439    7.7033 C   0  0  0  0  0  0
   -2.4642   -8.3238    7.1035 C   0  0  0  0  0  0
   -1.4305   -8.4319    5.9001 C   0  0  0  0  0  0
   -0.0325   -7.5793    6.1002 C   0  0  0  0  0  0
    1.1369   -8.5624    6.1178 C   0  0  0  0  0  0
    0.2501   -6.4310    5.0296 C   0  0  0  0  0  0
   -0.6630   -5.1061    4.8573 C   0  0  0  0  0  0
   -0.5920   -4.1968    3.5829 C   0  0  0  0  0  0
    0.7516   -3.3785    3.3102 C   0  0  0  0  0  0
    0.9758   -2.4258    2.0706 C   0  0  0  0  0  0
    2.2834   -1.5965    1.9703 C   0  0  0  0  0  0
    3.6001   -2.2890    2.4956 C   0  0  0  0  0  0
    3.7628   -2.3720    4.0185 C   0  0  0  0  0  0
    4.2524   -1.1063    4.7778 C   0  0  0  0  0  0
    3.3809    0.1840    4.8098 C   0  0  0  0  0  0
    3.9459    1.3642    5.5877 C   0  0  0  0  0  0
    2.9918    0.5893    3.4456 N   0  0  0  0  0  0
    4.3543   -1.5249    6.1628 O   0  0  0  0  0  0
    3.6449   -3.6161    1.9605 O   0  0  0  0  0  0
   -2.0184   -5.5829    4.9030 O   0  0  0  0  0  0
   -3.4332   -7.3364    6.6579 O   0  0  0  0  0  0
   -3.9574   -6.5156    7.6048 C   0  0  0  0  0  0
   -3.3972   -6.1310    8.6137 O   0  0  0  0  0  0
   -5.3206   -6.0732    7.1495 C   0  0  0  0  0  0
   -6.1840   -5.5391    8.3035 C   0  0  0  0  0  0
   -7.5846   -5.1148    7.8434 C   0  0  0  0  0  0
   -8.3541   -6.2894    7.2853 C   0  0  0  0  0  0
   -7.8615   -7.3971    7.1009 O   0  0  0  0  0  0
   -9.6358   -6.0062    7.0098 O   0  0  0  0  0  0
   -6.2894   -6.6865    9.3175 C   0  0  0  0  0  0
   -6.3230   -7.8635    8.9918 O   0  0  0  0  0  0
   -6.3919   -6.2895   10.5934 O   0  0  0  0  0  0
   -4.1559   -9.1227    8.8476 O   0  0  0  0  0  0
   -3.5356   -8.5735    9.9574 C   0  0  0  0  0  0
   -4.1234   -8.0731   10.9074 O   0  0  0  0  0  0
   -2.0059   -8.6589    9.8732 C   0  0  0  0  0  0
   -1.3254   -9.6350   10.8826 C   0  0  0  0  0  0
   -0.6088  -10.8753   10.3182 C   0  0  0  0  0  0
   -0.0037  -10.6379    8.9647 C   0  0  0  0  0  0
    1.0624  -10.0784    8.7479 O   0  0  0  0  0  0
   -0.7587  -11.1313    7.9713 O   0  0  0  0  0  0
   -0.3602   -8.9632   11.8671 C   0  0  0  0  0  0
   -0.4998   -9.0224   13.0729 O   0  0  0  0  0  0
    0.7252   -8.3852   11.3113 O   0  0  0  0  0  0
    3.7952    1.0089    2.9799 H   0  0  0  0  0  0
    2.3032    1.3421    3.5124 H   0  0  0  0  0  0
    5.1075   -2.1525    6.1760 H   0  0  0  0  0  0
    4.5403   -3.9730    2.1069 H   0  0  0  0  0  0
   -2.6051   -4.8130    4.9904 H   0  0  0  0  0  0
   -9.8733   -5.0604    7.0589 H   0  0  0  0  0  0
   -6.4682   -7.0276   11.2477 H   0  0  0  0  0  0
   -0.2703  -10.9651    7.1375 H   0  0  0  0  0  0
    0.7634   -8.4209   10.3297 H   0  0  0  0  0  0
  1  2  1  0  0  0
  2  3  1  0  0  0
  3  4  1  0  0  0
  4  5  1  0  0  0
  5  6  1  0  0  0
  5  7  1  0  0  0
  7  8  1  0  0  0
  7 39  1  0  0  0
  8  9  1  0  0  0
  8 27  1  0  0  0
  9 10  1  0  0  0
 10 11  1  0  0  0
 10 12  1  0  0  0
 12 13  1  0  0  0
 13 14  1  0  0  0
 13 26  1  0  0  0
 14 15  1  0  0  0
 15 16  1  0  0  0
 16 17  1  0  0  0
 17 18  1  0  0  0
 18 19  1  0  0  0
 18 25  1  0  0  0
 19 20  1  0  0  0
 20 21  1  0  0  0
 20 24  1  0  0  0
 21 22  1  0  0  0
 21 23  1  0  0  0
 23 51  1  0  0  0
 23 52  1  0  0  0
 24 53  1  0  0  0
 25 54  1  0  0  0
 26 55  1  0  0  0
 27 28  1  0  0  0
 28 29  2  0  0  0
 28 30  1  0  0  0
 30 31  1  0  0  0
 31 32  1  0  0  0
 31 36  1  0  0  0
 32 33  1  0  0  0
 33 34  2  0  0  0
 33 35  1  0  0  0
 35 56  1  0  0  0
 36 37  2  0  0  0
 36 38  1  0  0  0
 38 57  1  0  0  0
 39 40  1  0  0  0
 40 41  2  0  0  0
 40 42  1  0  0  0
 42 43  1  0  0  0
 43 44  1  0  0  0
 43 48  1  0  0  0
 44 45  1  0  0  0
 45 46  2  0  0  0
 45 47  1  0  0  0
 47 58  1  0  0  0
 48 49  2  0  0  0
 48 50  1  0  0  0
 50 59  1  0  0  0
M  END
>  <AUTHOR>
    GENERATED BY OPEN BABEL 2.4.1

>  <CHROM.1>
-176.27335495,69.71428913,163.09934238,-170.29431191,-51.81674803,167.89957772
-138.23470480,81.13137370,117.60886095,64.91061295,-163.70049099,-66.92245146
168.35332666,179.84666766,175.23556838,36.20584009,-75.42471128,-79.64310606
167.08250110,64.63840259,179.61062650,68.94337151,-75.15064287,31.10481857
161.09129508,-178.82331155,62.34238932,-33.77982931,-7.09208866,9.71674799
179.47046541,172.72753717,-111.14512078,114.12285674,31.91517470,121.26892611
80.31829920,-177.63810014,2.57757417,-1.80409296,-6.78636218,7.16522604,-2.24961278
0.02384422,-0.57949511

>  <COMPND>
    UNNAMED

>  <MASTER>
        0    0    0    0    0    0    0    0  109    0  109    0

>  <Name>
FB1.pdb

>  <RI>
0

>  <Rbt.Current_Directory>
/home/fc/tossine/F10/p3/2_clust03

>  <Rbt.Executable>
rbdock/0.1.0

>  <Rbt.Library>
librxdock.so/0.1.0

>  <Rbt.Parameter_File>
/cluster/rxdock/data/scripts/dock.prm

>  <Rbt.Receptor>
rx_1.prm

>  <SCORE>
7.08763

>  <SCORE.INTER>
1.11307

>  <SCORE.INTER.CONST>
1

>  <SCORE.INTER.POLAR>
-2.15737

>  <SCORE.INTER.REPUL>
0.165551

>  <SCORE.INTER.ROT>
32

>  <SCORE.INTER.VDW>
-29.7796

>  <SCORE.INTER.norm>
0.0222614

>  <SCORE.INTRA>
5.45186

>  <SCORE.INTRA.DIHEDRAL>
2.71716

>  <SCORE.INTRA.DIHEDRAL.0>
47.3121

>  <SCORE.INTRA.POLAR>
1.47808

>  <SCORE.INTRA.POLAR.0>
-1.47808

>  <SCORE.INTRA.REPUL>
0.00200829

>  <SCORE.INTRA.REPUL.0>
0

>  <SCORE.INTRA.VDW>
-0.942217

>  <SCORE.INTRA.VDW.0>
-2.78316

>  <SCORE.INTRA.norm>
0.109037

>  <SCORE.RESTR>
0.522699

>  <SCORE.RESTR.CAVITY>
0.522699

>  <SCORE.RESTR.norm>
0.010454

>  <SCORE.SYSTEM>
0

>  <SCORE.SYSTEM.CONST>
0

>  <SCORE.SYSTEM.DIHEDRAL>
0

>  <SCORE.SYSTEM.norm>
0

>  <SCORE.heavy>
50

>  <SCORE.norm>
0.141753

$$$$
