FB1.pdb
  RxDock  10102001443D
librxdock.so/0.1.0
 59 58  0  0  0  0  0  0  0  0999 V2000
   -7.5216   -6.1729   10.9242 C   0  0  0  0  0  0
   -6.6813   -6.6789    9.7541 C   0  0  0  0  0  0
   -6.0744   -5.5202    8.9458 C   0  0  0  0  0  0
   -5.0783   -5.9840    7.8539 C   0  0  0  0  0  0
   -3.6797   -6.4504    8.3895 C   0  0  0  0  0  0
   -3.8313   -7.8776    8.9646 C   0  0  0  0  0  0
   -2.5328   -6.3989    7.2941 C   0  0  0  0  0  0
   -1.4648   -5.2112    7.4169 C   0  0  0  0  0  0
   -0.7371   -4.5048    6.1923 C   0  0  0  0  0  0
    0.6994   -5.1826    5.7467 C   0  0  0  0  0  0
    1.3198   -4.3244    4.6455 C   0  0  0  0  0  0
    1.7634   -5.4062    6.9141 C   0  0  0  0  0  0
    2.0844   -4.3200    8.0698 C   0  0  0  0  0  0
    3.2725   -4.4914    9.0773 C   0  0  0  0  0  0
    3.2793   -5.7731   10.0293 C   0  0  0  0  0  0
    3.3667   -7.2632    9.5129 C   0  0  0  0  0  0
    4.0560   -8.3385   10.3939 C   0  0  0  0  0  0
    4.5122   -9.6613    9.6650 C   0  0  0  0  0  0
    5.7775   -9.5607    8.8039 C   0  0  0  0  0  0
    7.1597   -9.6414    9.5121 C   0  0  0  0  0  0
    8.4539   -9.9207    8.6921 C   0  0  0  0  0  0
    8.2598  -10.4793    7.2893 C   0  0  0  0  0  0
    9.3289   -8.7332    8.6705 N   0  0  0  0  0  0
    7.3560   -8.3239   10.0862 O   0  0  0  0  0  0
    4.7201  -10.6664   10.6631 O   0  0  0  0  0  0
    2.3649   -3.1001    7.3629 O   0  0  0  0  0  0
   -2.1414   -4.1262    8.1078 O   0  0  0  0  0  0
   -1.3596   -3.1497    8.6374 C   0  0  0  0  0  0
   -0.2415   -2.8441    8.2687 O   0  0  0  0  0  0
   -2.1474   -2.4324    9.6987 C   0  0  0  0  0  0
   -2.9711   -1.2640    9.1341 C   0  0  0  0  0  0
   -2.1397   -0.3356    8.2397 C   0  0  0  0  0  0
   -2.4277    1.1162    8.5440 C   0  0  0  0  0  0
   -3.3940    1.4934    9.1979 O   0  0  0  0  0  0
   -1.5205    1.9600    8.0301 O   0  0  0  0  0  0
   -4.1046   -1.9021    8.3191 C   0  0  0  0  0  0
   -4.2002   -1.7878    7.1066 O   0  0  0  0  0  0
   -5.0134   -2.5573    9.0544 O   0  0  0  0  0  0
   -1.8770   -7.7206    7.1429 O   0  0  0  0  0  0
   -2.5317   -8.7020    6.4175 C   0  0  0  0  0  0
   -3.6189   -8.5576    5.8738 O   0  0  0  0  0  0
   -1.7390  -10.0147    6.3634 C   0  0  0  0  0  0
   -1.4520  -10.6899    7.7404 C   0  0  0  0  0  0
   -0.4742   -9.9880    8.7004 C   0  0  0  0  0  0
    0.8773   -9.7505    8.0907 C   0  0  0  0  0  0
    1.8258  -10.5218    8.1354 O   0  0  0  0  0  0
    0.9511   -8.5747    7.4486 O   0  0  0  0  0  0
   -2.7053  -11.0447    8.5501 C   0  0  0  0  0  0
   -2.8572  -10.7155    9.7100 O   0  0  0  0  0  0
   -3.6872  -11.6599    7.8583 O   0  0  0  0  0  0
    8.7809   -7.9195    8.3945 H   0  0  0  0  0  0
   10.0200   -8.8501    7.9261 H   0  0  0  0  0  0
    6.7546   -8.3000   10.8602 H   0  0  0  0  0  0
    4.9779  -11.4924   10.2139 H   0  0  0  0  0  0
    1.5172   -2.6855    7.1304 H   0  0  0  0  0  0
   -1.6426    2.8989    8.2690 H   0  0  0  0  0  0
   -4.7462   -2.7118    9.9944 H   0  0  0  0  0  0
    0.0676   -8.1566    7.5249 H   0  0  0  0  0  0
   -3.4577  -11.9092    6.9356 H   0  0  0  0  0  0
  1  2  1  0  0  0
  2  3  1  0  0  0
  3  4  1  0  0  0
  4  5  1  0  0  0
  5  6  1  0  0  0
  5  7  1  0  0  0
  7  8  1  0  0  0
  7 39  1  0  0  0
  8  9  1  0  0  0
  8 27  1  0  0  0
  9 10  1  0  0  0
 10 11  1  0  0  0
 10 12  1  0  0  0
 12 13  1  0  0  0
 13 14  1  0  0  0
 13 26  1  0  0  0
 14 15  1  0  0  0
 15 16  1  0  0  0
 16 17  1  0  0  0
 17 18  1  0  0  0
 18 19  1  0  0  0
 18 25  1  0  0  0
 19 20  1  0  0  0
 20 21  1  0  0  0
 20 24  1  0  0  0
 21 22  1  0  0  0
 21 23  1  0  0  0
 23 51  1  0  0  0
 23 52  1  0  0  0
 24 53  1  0  0  0
 25 54  1  0  0  0
 26 55  1  0  0  0
 27 28  1  0  0  0
 28 29  2  0  0  0
 28 30  1  0  0  0
 30 31  1  0  0  0
 31 32  1  0  0  0
 31 36  1  0  0  0
 32 33  1  0  0  0
 33 34  2  0  0  0
 33 35  1  0  0  0
 35 56  1  0  0  0
 36 37  2  0  0  0
 36 38  1  0  0  0
 38 57  1  0  0  0
 39 40  1  0  0  0
 40 41  2  0  0  0
 40 42  1  0  0  0
 42 43  1  0  0  0
 43 44  1  0  0  0
 43 48  1  0  0  0
 44 45  1  0  0  0
 45 46  2  0  0  0
 45 47  1  0  0  0
 47 58  1  0  0  0
 48 49  2  0  0  0
 48 50  1  0  0  0
 50 59  1  0  0  0
M  END
>  <AUTHOR>
    GENERATED BY OPEN BABEL 2.4.1

>  <CHROM.1>
173.06573742,-74.67402863,77.84470807,105.56907009,-147.69082439,77.68761703
-90.86605870,163.35655039,-175.31703221,-43.03744729,-171.24673945,-60.45841021
81.42459822,62.86975264,149.45450248,-161.40318281,75.86491018,81.26275464
178.43082370,163.86541589,-16.35774609,74.47040659,-50.26844029,24.62871161
-88.24641523,-49.46280389,-136.05106292,-113.99959789,-14.74061620,-175.46058829
-12.26208837,0.70794140,60.70094807,-68.78243462,-56.81650312,-128.58856142
-89.99474946,-1.13792469,6.73964800,-0.15402594,-6.26983040,8.31038625,2.53989712
-0.03399918,-0.01169180

>  <COMPND>
    UNNAMED

>  <MASTER>
        0    0    0    0    0    0    0    0  109    0  109    0

>  <Name>
FB1.pdb

>  <RI>
0

>  <Rbt.Current_Directory>
/home/fc/tossine/F10/p3/2_clust03

>  <Rbt.Executable>
rbdock/0.1.0

>  <Rbt.Library>
librxdock.so/0.1.0

>  <Rbt.Parameter_File>
/cluster/rxdock/data/scripts/dock.prm

>  <Rbt.Receptor>
rx_3.prm

>  <SCORE>
8.8228

>  <SCORE.INTER>
4.20987

>  <SCORE.INTER.CONST>
1

>  <SCORE.INTER.POLAR>
-1.97584

>  <SCORE.INTER.REPUL>
0.916997

>  <SCORE.INTER.ROT>
32

>  <SCORE.INTER.VDW>
-31.0572

>  <SCORE.INTER.norm>
0.0841975

>  <SCORE.INTRA>
4.59772

>  <SCORE.INTRA.DIHEDRAL>
4.89508

>  <SCORE.INTRA.DIHEDRAL.0>
47.3121

>  <SCORE.INTRA.POLAR>
-0.0146336

>  <SCORE.INTRA.POLAR.0>
-1.47808

>  <SCORE.INTRA.REPUL>
0

>  <SCORE.INTRA.REPUL.0>
0

>  <SCORE.INTRA.VDW>
2.19994

>  <SCORE.INTRA.VDW.0>
-2.78316

>  <SCORE.INTRA.norm>
0.0919544

>  <SCORE.RESTR>
0.0152043

>  <SCORE.RESTR.CAVITY>
0.0152043

>  <SCORE.RESTR.norm>
0.000304086

>  <SCORE.SYSTEM>
0

>  <SCORE.SYSTEM.CONST>
0

>  <SCORE.SYSTEM.DIHEDRAL>
0

>  <SCORE.SYSTEM.norm>
0

>  <SCORE.heavy>
50

>  <SCORE.norm>
0.176456

$$$$
