FB1.pdb
  RxDock  10102002223D
librxdock.so/0.1.0
 59 58  0  0  0  0  0  0  0  0999 V2000
    0.2131   -1.9414    2.4004 C   0  0  0  0  0  0
   -0.0921   -2.4047    3.8229 C   0  0  0  0  0  0
   -0.7178   -3.8091    3.8424 C   0  0  0  0  0  0
   -1.1528   -4.2717    5.2554 C   0  0  0  0  0  0
   -1.5862   -3.1176    6.2251 C   0  0  0  0  0  0
   -3.1312   -3.0658    6.2584 C   0  0  0  0  0  0
   -0.9917   -3.2638    7.6891 C   0  0  0  0  0  0
    0.5089   -3.8110    7.8115 C   0  0  0  0  0  0
    0.9276   -5.3448    7.7964 C   0  0  0  0  0  0
    2.4244   -5.6674    8.4103 C   0  0  0  0  0  0
    2.3619   -5.5427    9.9317 C   0  0  0  0  0  0
    3.0578   -7.0770    8.0147 C   0  0  0  0  0  0
    2.4777   -8.5040    8.5107 C   0  0  0  0  0  0
    1.0145   -8.9705    8.1982 C   0  0  0  0  0  0
   -0.1934   -8.0300    8.6517 C   0  0  0  0  0  0
   -1.6540   -8.5459    8.9598 C   0  0  0  0  0  0
   -2.8710   -7.6472    8.6151 C   0  0  0  0  0  0
   -4.2965   -8.2244    8.9669 C   0  0  0  0  0  0
   -4.5376   -9.6984    8.6181 C   0  0  0  0  0  0
   -4.3615  -10.1444    7.1388 C   0  0  0  0  0  0
   -4.9840   -9.3093    5.9810 C   0  0  0  0  0  0
   -4.6606   -7.8218    5.9687 C   0  0  0  0  0  0
   -4.6895   -9.9238    4.6725 N   0  0  0  0  0  0
   -2.9302  -10.0970    6.9085 O   0  0  0  0  0  0
   -4.5098   -8.0487   10.3717 O   0  0  0  0  0  0
    3.3250   -9.4840    7.8878 O   0  0  0  0  0  0
    1.2465   -3.2256    6.7044 O   0  0  0  0  0  0
    1.5896   -1.9160    6.8156 C   0  0  0  0  0  0
    1.3695   -1.1930    7.7686 O   0  0  0  0  0  0
    2.3832   -1.5269    5.5989 C   0  0  0  0  0  0
    3.6377   -0.7105    5.9485 C   0  0  0  0  0  0
    4.7860   -1.5876    6.4637 C   0  0  0  0  0  0
    4.3332   -2.4595    7.6118 C   0  0  0  0  0  0
    4.1032   -3.6590    7.5029 O   0  0  0  0  0  0
    4.2069   -1.7949    8.7700 O   0  0  0  0  0  0
    4.0569   -0.0049    4.6515 C   0  0  0  0  0  0
    4.0677    1.2103    4.5268 O   0  0  0  0  0  0
    4.3646   -0.8347    3.6451 O   0  0  0  0  0  0
   -1.1952   -2.0231    8.4760 O   0  0  0  0  0  0
   -2.4087   -1.8418    9.1184 C   0  0  0  0  0  0
   -3.3603   -2.6076    9.0383 O   0  0  0  0  0  0
   -2.4386   -0.5579    9.9580 C   0  0  0  0  0  0
   -2.5647    0.7739    9.1549 C   0  0  0  0  0  0
   -2.6599    2.0904    9.9476 C   0  0  0  0  0  0
   -2.9031    3.2858    9.0723 C   0  0  0  0  0  0
   -2.0912    4.1674    8.8268 O   0  0  0  0  0  0
   -4.1368    3.2932    8.5448 O   0  0  0  0  0  0
   -1.4931    0.9715    8.0756 C   0  0  0  0  0  0
   -0.6535    1.8483    8.1315 O   0  0  0  0  0  0
   -1.4720    0.0371    7.1021 O   0  0  0  0  0  0
   -5.5223   -9.8779    4.0869 H   0  0  0  0  0  0
   -4.5199  -10.9225    4.8115 H   0  0  0  0  0  0
   -2.5796  -10.8870    7.3713 H   0  0  0  0  0  0
   -5.3258   -8.5226   10.6171 H   0  0  0  0  0  0
    3.0740   -9.5469    6.9510 H   0  0  0  0  0  0
    3.8109   -2.3054    9.5022 H   0  0  0  0  0  0
    4.6683   -0.3825    2.8192 H   0  0  0  0  0  0
   -4.1925    4.0859    7.9706 H   0  0  0  0  0  0
   -0.7218    0.1057    6.4707 H   0  0  0  0  0  0
  1  2  1  0  0  0
  2  3  1  0  0  0
  3  4  1  0  0  0
  4  5  1  0  0  0
  5  6  1  0  0  0
  5  7  1  0  0  0
  7  8  1  0  0  0
  7 39  1  0  0  0
  8  9  1  0  0  0
  8 27  1  0  0  0
  9 10  1  0  0  0
 10 11  1  0  0  0
 10 12  1  0  0  0
 12 13  1  0  0  0
 13 14  1  0  0  0
 13 26  1  0  0  0
 14 15  1  0  0  0
 15 16  1  0  0  0
 16 17  1  0  0  0
 17 18  1  0  0  0
 18 19  1  0  0  0
 18 25  1  0  0  0
 19 20  1  0  0  0
 20 21  1  0  0  0
 20 24  1  0  0  0
 21 22  1  0  0  0
 21 23  1  0  0  0
 23 51  1  0  0  0
 23 52  1  0  0  0
 24 53  1  0  0  0
 25 54  1  0  0  0
 26 55  1  0  0  0
 27 28  1  0  0  0
 28 29  2  0  0  0
 28 30  1  0  0  0
 30 31  1  0  0  0
 31 32  1  0  0  0
 31 36  1  0  0  0
 32 33  1  0  0  0
 33 34  2  0  0  0
 33 35  1  0  0  0
 35 56  1  0  0  0
 36 37  2  0  0  0
 36 38  1  0  0  0
 38 57  1  0  0  0
 39 40  1  0  0  0
 40 41  2  0  0  0
 40 42  1  0  0  0
 42 43  1  0  0  0
 43 44  1  0  0  0
 43 48  1  0  0  0
 44 45  1  0  0  0
 45 46  2  0  0  0
 45 47  1  0  0  0
 47 58  1  0  0  0
 48 49  2  0  0  0
 48 50  1  0  0  0
 50 59  1  0  0  0
M  END
>  <AUTHOR>
    GENERATED BY OPEN BABEL 2.4.1

>  <CHROM.1>
-175.18608194,30.02828950,100.56465373,38.05527063,-83.54503661,84.10744239
-161.20670038,75.55037092,74.21314083,-67.36605485,59.10392014,-56.01197853
-75.80693050,-154.13158638,-145.68917189,-179.34684595,-43.57968257,-57.89349216
-171.53597185,-46.25196780,52.02114964,75.06992593,138.50841031,2.05463114
-134.62530282,78.36074370,-53.14216056,116.72627017,104.11665683,172.74005364
-177.77074387,-3.44346318,74.58771618,177.45503262,-174.74098951,-113.98783491
-109.04813488,-178.14042742,-173.22740111,-0.36707069,-3.64050503,7.35638210
-1.26191263,-0.23867366,-3.11819633

>  <COMPND>
    UNNAMED

>  <MASTER>
        0    0    0    0    0    0    0    0  109    0  109    0

>  <Name>
FB1.pdb

>  <RI>
0

>  <Rbt.Current_Directory>
/home/fc/tossine/F10/p3/2_clust03

>  <Rbt.Executable>
rbdock/0.1.0

>  <Rbt.Library>
librxdock.so/0.1.0

>  <Rbt.Parameter_File>
/cluster/rxdock/data/scripts/dock.prm

>  <Rbt.Receptor>
rx_4.prm

>  <SCORE>
-5.57114

>  <SCORE.INTER>
-6.86423

>  <SCORE.INTER.CONST>
1

>  <SCORE.INTER.POLAR>
-2.88384

>  <SCORE.INTER.REPUL>
0.0378577

>  <SCORE.INTER.ROT>
32

>  <SCORE.INTER.VDW>
-34.6485

>  <SCORE.INTER.norm>
-0.137285

>  <SCORE.INTRA>
0.423413

>  <SCORE.INTRA.DIHEDRAL>
-5.14381

>  <SCORE.INTRA.DIHEDRAL.0>
47.3121

>  <SCORE.INTRA.POLAR>
1.47808

>  <SCORE.INTRA.POLAR.0>
-1.47808

>  <SCORE.INTRA.REPUL>
0

>  <SCORE.INTRA.REPUL.0>
0

>  <SCORE.INTRA.VDW>
-2.03014

>  <SCORE.INTRA.VDW.0>
-2.78316

>  <SCORE.INTRA.norm>
0.00846826

>  <SCORE.RESTR>
0.869672

>  <SCORE.RESTR.CAVITY>
0.869672

>  <SCORE.RESTR.norm>
0.0173934

>  <SCORE.SYSTEM>
0

>  <SCORE.SYSTEM.CONST>
0

>  <SCORE.SYSTEM.DIHEDRAL>
0

>  <SCORE.SYSTEM.norm>
0

>  <SCORE.heavy>
50

>  <SCORE.norm>
-0.111423

$$$$
