FB1.pdb
  RxDock  10102001043D
librxdock.so/0.1.0
 59 58  0  0  0  0  0  0  0  0999 V2000
    3.5624   -4.9379    8.6488 C   0  0  0  0  0  0
    3.0478   -4.8185   10.0813 C   0  0  0  0  0  0
    1.8931   -5.7963   10.3549 C   0  0  0  0  0  0
    0.5163   -5.2770    9.8708 C   0  0  0  0  0  0
    0.3504   -5.1957    8.3131 C   0  0  0  0  0  0
   -1.1103   -5.5602    7.9608 C   0  0  0  0  0  0
    0.7447   -3.7832    7.7072 C   0  0  0  0  0  0
    1.7078   -3.7860    6.4271 C   0  0  0  0  0  0
    1.2407   -4.0552    4.9312 C   0  0  0  0  0  0
    0.2990   -5.3936    4.7227 C   0  0  0  0  0  0
   -0.1410   -5.4541    3.2608 C   0  0  0  0  0  0
    0.9538   -6.7864    5.1423 C   0  0  0  0  0  0
    0.1597   -7.9671    5.9129 C   0  0  0  0  0  0
   -1.4030   -8.0834    5.8884 C   0  0  0  0  0  0
   -2.0941   -9.1949    6.8029 C   0  0  0  0  0  0
   -3.5432   -9.7728    6.5568 C   0  0  0  0  0  0
   -4.6985   -8.8067    6.1836 C   0  0  0  0  0  0
   -5.1859   -7.8197    7.3138 C   0  0  0  0  0  0
   -5.7998   -8.4661    8.5619 C   0  0  0  0  0  0
   -6.3428   -7.5352    9.6830 C   0  0  0  0  0  0
   -7.2378   -8.1071   10.8220 C   0  0  0  0  0  0
   -7.8005   -7.0978   11.8130 C   0  0  0  0  0  0
   -8.3091   -8.9588   10.2712 N   0  0  0  0  0  0
   -5.1571   -7.0355   10.3524 O   0  0  0  0  0  0
   -4.0666   -7.0236    7.7178 O   0  0  0  0  0  0
    0.6360   -9.1844    5.3147 O   0  0  0  0  0  0
    2.3250   -2.4709    6.3801 O   0  0  0  0  0  0
    1.5130   -1.4180    6.1023 C   0  0  0  0  0  0
    0.3835   -1.4788    5.6551 O   0  0  0  0  0  0
    2.2055   -0.1555    6.5361 C   0  0  0  0  0  0
    2.8501    0.5977    5.3616 C   0  0  0  0  0  0
    4.2136    1.1993    5.7255 C   0  0  0  0  0  0
    4.1846    2.7076    5.6383 C   0  0  0  0  0  0
    3.2535    3.3413    5.1534 O   0  0  0  0  0  0
    5.2793    3.2933    6.1459 O   0  0  0  0  0  0
    3.0146   -0.4347    4.2377 C   0  0  0  0  0  0
    3.9368   -1.2350    4.1970 O   0  0  0  0  0  0
    2.0875   -0.3549    3.2734 O   0  0  0  0  0  0
   -0.4551   -2.9371    7.4963 O   0  0  0  0  0  0
   -1.2225   -2.5955    8.5975 C   0  0  0  0  0  0
   -1.0517   -3.0328    9.7280 O   0  0  0  0  0  0
   -2.3299   -1.5923    8.2488 C   0  0  0  0  0  0
   -3.7682   -1.9840    8.7097 C   0  0  0  0  0  0
   -4.7896   -0.8535    8.9315 C   0  0  0  0  0  0
   -4.2795    0.2280    9.8396 C   0  0  0  0  0  0
   -4.5888    0.3788   11.0135 O   0  0  0  0  0  0
   -3.4021    1.0391    9.2292 O   0  0  0  0  0  0
   -4.4501   -3.0458    7.8380 C   0  0  0  0  0  0
   -5.0973   -3.9642    8.3012 O   0  0  0  0  0  0
   -4.3767   -2.8370    6.5067 O   0  0  0  0  0  0
   -8.9058   -8.3958    9.6666 H   0  0  0  0  0  0
   -8.9167   -9.2562   11.0379 H   0  0  0  0  0  0
   -4.6791   -6.5291    9.6621 H   0  0  0  0  0  0
   -3.4419   -7.5983    8.1975 H   0  0  0  0  0  0
    1.5702   -9.2940    5.5590 H   0  0  0  0  0  0
    5.2998    4.2672    6.0786 H   0  0  0  0  0  0
    1.4250    0.3688    3.4004 H   0  0  0  0  0  0
   -3.1044    1.6881    9.9011 H   0  0  0  0  0  0
   -3.9429   -1.9973    6.2370 H   0  0  0  0  0  0
  1  2  1  0  0  0
  2  3  1  0  0  0
  3  4  1  0  0  0
  4  5  1  0  0  0
  5  6  1  0  0  0
  5  7  1  0  0  0
  7  8  1  0  0  0
  7 39  1  0  0  0
  8  9  1  0  0  0
  8 27  1  0  0  0
  9 10  1  0  0  0
 10 11  1  0  0  0
 10 12  1  0  0  0
 12 13  1  0  0  0
 13 14  1  0  0  0
 13 26  1  0  0  0
 14 15  1  0  0  0
 15 16  1  0  0  0
 16 17  1  0  0  0
 17 18  1  0  0  0
 18 19  1  0  0  0
 18 25  1  0  0  0
 19 20  1  0  0  0
 20 21  1  0  0  0
 20 24  1  0  0  0
 21 22  1  0  0  0
 21 23  1  0  0  0
 23 51  1  0  0  0
 23 52  1  0  0  0
 24 53  1  0  0  0
 25 54  1  0  0  0
 26 55  1  0  0  0
 27 28  1  0  0  0
 28 29  2  0  0  0
 28 30  1  0  0  0
 30 31  1  0  0  0
 31 32  1  0  0  0
 31 36  1  0  0  0
 32 33  1  0  0  0
 33 34  2  0  0  0
 33 35  1  0  0  0
 35 56  1  0  0  0
 36 37  2  0  0  0
 36 38  1  0  0  0
 38 57  1  0  0  0
 39 40  1  0  0  0
 40 41  2  0  0  0
 40 42  1  0  0  0
 42 43  1  0  0  0
 43 44  1  0  0  0
 43 48  1  0  0  0
 44 45  1  0  0  0
 45 46  2  0  0  0
 45 47  1  0  0  0
 47 58  1  0  0  0
 48 49  2  0  0  0
 48 50  1  0  0  0
 50 59  1  0  0  0
M  END
>  <AUTHOR>
    GENERATED BY OPEN BABEL 2.4.1

>  <CHROM.1>
-82.23434470,68.97422066,144.33809611,132.19879500,80.11110239,61.33040891
-49.12143877,-67.72485782,176.10856961,139.44968647,21.72276624,-173.80554456
67.66071459,-158.59494404,-42.98902189,-69.11137067,-63.46522664,-177.82031226
-69.90721878,167.03956404,-175.71689289,62.49522675,-61.80932728,-14.23407203
100.78260865,-140.67238232,-116.68257303,-80.79008440,-9.83076824,178.23762246
1.01221005,-6.52839370,128.48755024,155.24307786,-52.12697504,137.98532677
-103.03559929,-178.15432144,-3.67876332,-1.06077987,-3.85102660,7.38899817
-0.64043769,-0.49584255,-2.96508333

>  <COMPND>
    UNNAMED

>  <MASTER>
        0    0    0    0    0    0    0    0  109    0  109    0

>  <Name>
FB1.pdb

>  <RI>
0

>  <Rbt.Current_Directory>
/home/fc/tossine/F10/p3/2_clust03

>  <Rbt.Executable>
rbdock/0.1.0

>  <Rbt.Library>
librxdock.so/0.1.0

>  <Rbt.Parameter_File>
/cluster/rxdock/data/scripts/dock.prm

>  <Rbt.Receptor>
rx_2.prm

>  <SCORE>
7.02577

>  <SCORE.INTER>
-1.76314

>  <SCORE.INTER.CONST>
1

>  <SCORE.INTER.POLAR>
-1.49618

>  <SCORE.INTER.REPUL>
0.110233

>  <SCORE.INTER.ROT>
32

>  <SCORE.INTER.VDW>
-34.6273

>  <SCORE.INTER.norm>
-0.0352628

>  <SCORE.INTRA>
8.78799

>  <SCORE.INTRA.DIHEDRAL>
8.38376

>  <SCORE.INTRA.DIHEDRAL.0>
47.3121

>  <SCORE.INTRA.POLAR>
1.24757

>  <SCORE.INTRA.POLAR.0>
-1.47808

>  <SCORE.INTRA.REPUL>
0

>  <SCORE.INTRA.REPUL.0>
0

>  <SCORE.INTRA.VDW>
0.354378

>  <SCORE.INTRA.VDW.0>
-2.78316

>  <SCORE.INTRA.norm>
0.17576

>  <SCORE.RESTR>
0.000912023

>  <SCORE.RESTR.CAVITY>
0.000912023

>  <SCORE.RESTR.norm>
1.82405e-05

>  <SCORE.SYSTEM>
0

>  <SCORE.SYSTEM.CONST>
0

>  <SCORE.SYSTEM.DIHEDRAL>
0

>  <SCORE.SYSTEM.norm>
0

>  <SCORE.heavy>
50

>  <SCORE.norm>
0.140515

$$$$
