FB1.pdb
  RxDock  10102000073D
librxdock.so/0.1.0
 59 58  0  0  0  0  0  0  0  0999 V2000
   -6.8611   -5.7610    7.8753 C   0  0  0  0  0  0
   -6.6233   -6.5858    9.1380 C   0  0  0  0  0  0
   -6.1911   -8.0236    8.8060 C   0  0  0  0  0  0
   -4.8933   -8.0993    7.9636 C   0  0  0  0  0  0
   -3.5751   -7.7719    8.7483 C   0  0  0  0  0  0
   -3.2840   -8.9409    9.7175 C   0  0  0  0  0  0
   -2.3297   -7.4927    7.8056 C   0  0  0  0  0  0
   -1.3222   -6.3326    8.2586 C   0  0  0  0  0  0
    0.2300   -6.2838    7.9173 C   0  0  0  0  0  0
    1.0472   -5.0022    8.5584 C   0  0  0  0  0  0
    1.4691   -5.3594    9.9827 C   0  0  0  0  0  0
    2.3164   -4.4950    7.7359 C   0  0  0  0  0  0
    2.2941   -4.1475    6.1555 C   0  0  0  0  0  0
    3.4983   -3.4542    5.4307 C   0  0  0  0  0  0
    3.5399   -3.4829    3.8349 C   0  0  0  0  0  0
    4.2353   -2.3796    2.9441 C   0  0  0  0  0  0
    3.5654   -0.9888    2.7880 C   0  0  0  0  0  0
    4.3635    0.0897    1.9580 C   0  0  0  0  0  0
    3.5704    0.8428    0.8826 C   0  0  0  0  0  0
    2.1921    1.4485    1.2717 C   0  0  0  0  0  0
    0.9127    0.5606    1.2848 C   0  0  0  0  0  0
    0.9330   -0.6701    0.3889 C   0  0  0  0  0  0
    0.5361    0.2017    2.6653 N   0  0  0  0  0  0
    2.3579    1.8882    2.6440 O   0  0  0  0  0  0
    4.9027    1.0449    2.8780 O   0  0  0  0  0  0
    2.1426   -5.4179    5.5000 O   0  0  0  0  0  0
   -1.8511   -5.0966    7.7063 O   0  0  0  0  0  0
   -1.9568   -5.0206    6.3542 C   0  0  0  0  0  0
   -2.7828   -5.5873    5.6642 O   0  0  0  0  0  0
   -0.9403   -4.0328    5.8520 C   0  0  0  0  0  0
   -1.4627   -2.5873    5.8702 C   0  0  0  0  0  0
   -2.3872   -2.3105    7.0627 C   0  0  0  0  0  0
   -3.8252   -2.6263    6.7223 C   0  0  0  0  0  0
   -4.4435   -3.5715    7.1999 O   0  0  0  0  0  0
   -4.3670   -1.7693    5.8442 O   0  0  0  0  0  0
   -0.2195   -1.6905    5.9501 C   0  0  0  0  0  0
    0.0520   -1.0127    6.9295 O   0  0  0  0  0  0
    0.5222   -1.6727    4.8341 O   0  0  0  0  0  0
   -1.6151   -8.7500    7.4761 O   0  0  0  0  0  0
   -2.1990   -9.6228    6.5731 C   0  0  0  0  0  0
   -3.3829   -9.6139    6.2621 O   0  0  0  0  0  0
   -1.1902  -10.6213    5.9905 C   0  0  0  0  0  0
   -0.7104  -11.7442    6.9618 C   0  0  0  0  0  0
   -1.7499  -12.7679    7.4537 C   0  0  0  0  0  0
   -2.7752  -12.1677    8.3718 C   0  0  0  0  0  0
   -2.6758  -12.0721    9.5873 O   0  0  0  0  0  0
   -3.8492  -11.7086    7.7114 O   0  0  0  0  0  0
    0.5072  -12.5361    6.4691 C   0  0  0  0  0  0
    1.4685  -12.7747    7.1731 O   0  0  0  0  0  0
    0.4001  -13.0494    5.2256 O   0  0  0  0  0  0
   -0.3698   -0.2650    2.6538 H   0  0  0  0  0  0
    0.3826    1.0620    3.1961 H   0  0  0  0  0  0
    2.2429    1.0748    3.1792 H   0  0  0  0  0  0
    4.1647    1.5704    3.2382 H   0  0  0  0  0  0
    2.9794   -5.9040    5.5890 H   0  0  0  0  0  0
   -5.3056   -1.9311    5.6292 H   0  0  0  0  0  0
    0.1472   -2.1977    4.0841 H   0  0  0  0  0  0
   -3.6998  -11.9025    6.7620 H   0  0  0  0  0  0
   -0.4534  -12.8731    4.7709 H   0  0  0  0  0  0
  1  2  1  0  0  0
  2  3  1  0  0  0
  3  4  1  0  0  0
  4  5  1  0  0  0
  5  6  1  0  0  0
  5  7  1  0  0  0
  7  8  1  0  0  0
  7 39  1  0  0  0
  8  9  1  0  0  0
  8 27  1  0  0  0
  9 10  1  0  0  0
 10 11  1  0  0  0
 10 12  1  0  0  0
 12 13  1  0  0  0
 13 14  1  0  0  0
 13 26  1  0  0  0
 14 15  1  0  0  0
 15 16  1  0  0  0
 16 17  1  0  0  0
 17 18  1  0  0  0
 18 19  1  0  0  0
 18 25  1  0  0  0
 19 20  1  0  0  0
 20 21  1  0  0  0
 20 24  1  0  0  0
 21 22  1  0  0  0
 21 23  1  0  0  0
 23 51  1  0  0  0
 23 52  1  0  0  0
 24 53  1  0  0  0
 25 54  1  0  0  0
 26 55  1  0  0  0
 27 28  1  0  0  0
 28 29  2  0  0  0
 28 30  1  0  0  0
 30 31  1  0  0  0
 31 32  1  0  0  0
 31 36  1  0  0  0
 32 33  1  0  0  0
 33 34  2  0  0  0
 33 35  1  0  0  0
 35 56  1  0  0  0
 36 37  2  0  0  0
 36 38  1  0  0  0
 38 57  1  0  0  0
 39 40  1  0  0  0
 40 41  2  0  0  0
 40 42  1  0  0  0
 42 43  1  0  0  0
 43 44  1  0  0  0
 43 48  1  0  0  0
 44 45  1  0  0  0
 45 46  2  0  0  0
 45 47  1  0  0  0
 47 58  1  0  0  0
 48 49  2  0  0  0
 48 50  1  0  0  0
 50 59  1  0  0  0
M  END
>  <AUTHOR>
    GENERATED BY OPEN BABEL 2.4.1

>  <CHROM.1>
58.86299664,73.57632525,71.11687529,141.57059546,151.12715320,73.98951311
-177.74009854,-60.82843171,85.17024972,51.09128897,170.75313590,164.92626454
-71.71724565,151.78832963,-73.51806621,176.27122472,131.92903401,48.42516146
-70.26891795,-82.26795471,-24.80587211,-81.00758232,172.13120290,73.65491283
-86.44247710,35.30266507,-89.05738512,-112.30356275,110.17534973,-177.98219470
3.35347602,-18.38953212,72.74024020,64.96907544,-68.29260828,132.85524529
-88.67896781,1.16105803,-0.88444050,-0.64902392,-5.36206982,6.06908846,2.02803590
-0.41409241,2.88773747

>  <COMPND>
    UNNAMED

>  <MASTER>
        0    0    0    0    0    0    0    0  109    0  109    0

>  <Name>
FB1.pdb

>  <RI>
0

>  <Rbt.Current_Directory>
/home/fc/tossine/F10/p3/2_clust03

>  <Rbt.Executable>
rbdock/0.1.0

>  <Rbt.Library>
librxdock.so/0.1.0

>  <Rbt.Parameter_File>
/cluster/rxdock/data/scripts/dock.prm

>  <Rbt.Receptor>
rx_1.prm

>  <SCORE>
8.21785

>  <SCORE.INTER>
-7.92618

>  <SCORE.INTER.CONST>
1

>  <SCORE.INTER.POLAR>
-4.25499

>  <SCORE.INTER.REPUL>
0.120383

>  <SCORE.INTER.ROT>
32

>  <SCORE.INTER.VDW>
-31.4611

>  <SCORE.INTER.norm>
-0.158524

>  <SCORE.INTRA>
15.6607

>  <SCORE.INTRA.DIHEDRAL>
21.4535

>  <SCORE.INTRA.DIHEDRAL.0>
47.3121

>  <SCORE.INTRA.POLAR>
0.976986

>  <SCORE.INTRA.POLAR.0>
-1.47808

>  <SCORE.INTRA.REPUL>
0

>  <SCORE.INTRA.REPUL.0>
0

>  <SCORE.INTRA.VDW>
1.61217

>  <SCORE.INTRA.VDW.0>
-2.78316

>  <SCORE.INTRA.norm>
0.313213

>  <SCORE.RESTR>
0.483383

>  <SCORE.RESTR.CAVITY>
0.483383

>  <SCORE.RESTR.norm>
0.00966766

>  <SCORE.SYSTEM>
0

>  <SCORE.SYSTEM.CONST>
0

>  <SCORE.SYSTEM.DIHEDRAL>
0

>  <SCORE.SYSTEM.norm>
0

>  <SCORE.heavy>
50

>  <SCORE.norm>
0.164357

$$$$
