FB1.pdb
  RxDock  10102001053D
librxdock.so/0.1.0
 59 58  0  0  0  0  0  0  0  0999 V2000
   -3.3672  -12.4597    9.1919 C   0  0  0  0  0  0
   -3.2518  -11.6974    7.8739 C   0  0  0  0  0  0
   -2.4359  -10.4040    8.0338 C   0  0  0  0  0  0
   -2.3045   -9.5906    6.7220 C   0  0  0  0  0  0
   -1.6755   -8.1633    6.8887 C   0  0  0  0  0  0
   -1.2558   -7.6515    5.4914 C   0  0  0  0  0  0
   -2.6387   -7.1269    7.6070 C   0  0  0  0  0  0
   -2.2304   -5.5800    7.5255 C   0  0  0  0  0  0
   -3.1982   -4.3600    7.8468 C   0  0  0  0  0  0
   -3.1569   -3.1271    6.7516 C   0  0  0  0  0  0
   -4.0842   -2.0147    7.2382 C   0  0  0  0  0  0
   -1.7170   -2.5206    6.4297 C   0  0  0  0  0  0
   -1.4573   -0.9870    5.9831 C   0  0  0  0  0  0
   -0.0168   -0.4004    5.7909 C   0  0  0  0  0  0
    0.8621   -0.9352    4.5699 C   0  0  0  0  0  0
    0.4740   -0.7548    3.0496 C   0  0  0  0  0  0
    1.4653   -1.2136    1.9477 C   0  0  0  0  0  0
    2.8565   -0.4712    1.8967 C   0  0  0  0  0  0
    3.9019   -1.0522    0.9364 C   0  0  0  0  0  0
    4.6385   -2.3576    1.3506 C   0  0  0  0  0  0
    5.5682   -2.3793    2.5998 C   0  0  0  0  0  0
    6.9197   -1.6947    2.4506 C   0  0  0  0  0  0
    4.8559   -1.8856    3.7936 N   0  0  0  0  0  0
    3.5770   -3.2976    1.6562 O   0  0  0  0  0  0
    2.6160    0.8932    1.5356 O   0  0  0  0  0  0
   -2.0868   -0.8651    4.6965 O   0  0  0  0  0  0
   -1.1151   -5.4053    8.4409 O   0  0  0  0  0  0
   -0.5434   -4.1740    8.4888 C   0  0  0  0  0  0
   -1.0267   -3.1752    8.9871 O   0  0  0  0  0  0
    0.8412   -4.2693    7.9097 C   0  0  0  0  0  0
    1.7769   -5.1453    8.7579 C   0  0  0  0  0  0
    1.3106   -5.2657   10.2145 C   0  0  0  0  0  0
    2.4519   -5.0211   11.1742 C   0  0  0  0  0  0
    2.4525   -4.1273   12.0136 O   0  0  0  0  0  0
    3.4709   -5.8799   11.0225 O   0  0  0  0  0  0
    1.7797   -6.5280    8.0913 C   0  0  0  0  0  0
    0.9351   -6.8798    7.2818 O   0  0  0  0  0  0
    2.7604   -7.3408    8.5079 O   0  0  0  0  0  0
   -4.0518   -7.3486    7.2148 O   0  0  0  0  0  0
   -4.8044   -8.2529    7.9455 C   0  0  0  0  0  0
   -4.4748   -8.7187    9.0284 O   0  0  0  0  0  0
   -6.1201   -8.6178    7.2453 C   0  0  0  0  0  0
   -7.4242   -8.2190    8.0034 C   0  0  0  0  0  0
   -8.7699   -8.4205    7.2832 C   0  0  0  0  0  0
   -9.1593   -9.8655    7.1611 C   0  0  0  0  0  0
  -10.2753  -10.3234    7.3647 O   0  0  0  0  0  0
   -8.1356  -10.6418    6.7742 O   0  0  0  0  0  0
   -7.5623   -8.8339    9.4017 C   0  0  0  0  0  0
   -7.1813   -9.9562    9.6700 O   0  0  0  0  0  0
   -8.0411   -8.0061   10.3539 O   0  0  0  0  0  0
    5.5326   -1.4990    4.4503 H   0  0  0  0  0  0
    4.4426   -2.6839    4.2808 H   0  0  0  0  0  0
    4.0297   -4.1637    1.7354 H   0  0  0  0  0  0
    1.8289    0.9216    0.9609 H   0  0  0  0  0  0
   -1.7563   -1.5830    4.1308 H   0  0  0  0  0  0
    4.2676   -5.6783   11.5499 H   0  0  0  0  0  0
    3.2856   -6.9923    9.2705 H   0  0  0  0  0  0
   -8.4758  -11.5608    6.7425 H   0  0  0  0  0  0
   -8.0461   -8.3735   11.2656 H   0  0  0  0  0  0
  1  2  1  0  0  0
  2  3  1  0  0  0
  3  4  1  0  0  0
  4  5  1  0  0  0
  5  6  1  0  0  0
  5  7  1  0  0  0
  7  8  1  0  0  0
  7 39  1  0  0  0
  8  9  1  0  0  0
  8 27  1  0  0  0
  9 10  1  0  0  0
 10 11  1  0  0  0
 10 12  1  0  0  0
 12 13  1  0  0  0
 13 14  1  0  0  0
 13 26  1  0  0  0
 14 15  1  0  0  0
 15 16  1  0  0  0
 16 17  1  0  0  0
 17 18  1  0  0  0
 18 19  1  0  0  0
 18 25  1  0  0  0
 19 20  1  0  0  0
 20 21  1  0  0  0
 20 24  1  0  0  0
 21 22  1  0  0  0
 21 23  1  0  0  0
 23 51  1  0  0  0
 23 52  1  0  0  0
 24 53  1  0  0  0
 25 54  1  0  0  0
 26 55  1  0  0  0
 27 28  1  0  0  0
 28 29  2  0  0  0
 28 30  1  0  0  0
 30 31  1  0  0  0
 31 32  1  0  0  0
 31 36  1  0  0  0
 32 33  1  0  0  0
 33 34  2  0  0  0
 33 35  1  0  0  0
 35 56  1  0  0  0
 36 37  2  0  0  0
 36 38  1  0  0  0
 38 57  1  0  0  0
 39 40  1  0  0  0
 40 41  2  0  0  0
 40 42  1  0  0  0
 42 43  1  0  0  0
 43 44  1  0  0  0
 43 48  1  0  0  0
 44 45  1  0  0  0
 45 46  2  0  0  0
 45 47  1  0  0  0
 47 58  1  0  0  0
 48 49  2  0  0  0
 48 50  1  0  0  0
 50 59  1  0  0  0
M  END
>  <AUTHOR>
    GENERATED BY OPEN BABEL 2.4.1

>  <CHROM.1>
-179.45554174,170.90588760,164.54196486,-166.43528755,164.15952288,87.93131725
-134.36181932,176.46966766,-177.28299481,-150.73602659,174.82481160,68.50545374
-52.11011761,62.86342246,174.94951917,-63.10251033,171.96000901,-75.62328530
-30.92084474,-64.12234472,-74.25764595,168.67041808,-153.66714469,72.43939966
-65.54960709,-22.47668418,-132.29605638,-16.48224692,120.39178062,172.62907530
7.39150644,13.16869350,-117.01911443,173.49329024,71.91104059,-36.12297771
136.30697562,178.72360558,-174.25387323,-1.34632714,-5.45568904,6.76865901
-2.42476673,-0.24712618,-0.81611129

>  <COMPND>
    UNNAMED

>  <MASTER>
        0    0    0    0    0    0    0    0  109    0  109    0

>  <Name>
FB1.pdb

>  <RI>
0

>  <Rbt.Current_Directory>
/home/fc/tossine/F10/p3/2_clust03

>  <Rbt.Executable>
rbdock/0.1.0

>  <Rbt.Library>
librxdock.so/0.1.0

>  <Rbt.Parameter_File>
/cluster/rxdock/data/scripts/dock.prm

>  <Rbt.Receptor>
rx_2.prm

>  <SCORE>
16.2642

>  <SCORE.INTER>
2.5389

>  <SCORE.INTER.CONST>
1

>  <SCORE.INTER.POLAR>
-2.74181

>  <SCORE.INTER.REPUL>
0.313517

>  <SCORE.INTER.ROT>
32

>  <SCORE.INTER.VDW>
-27.1065

>  <SCORE.INTER.norm>
0.050778

>  <SCORE.INTRA>
13.0432

>  <SCORE.INTRA.DIHEDRAL>
17.9451

>  <SCORE.INTRA.DIHEDRAL.0>
47.3121

>  <SCORE.INTRA.POLAR>
0.478077

>  <SCORE.INTRA.POLAR.0>
-1.47808

>  <SCORE.INTRA.REPUL>
0

>  <SCORE.INTRA.REPUL.0>
0

>  <SCORE.INTRA.VDW>
2.44514

>  <SCORE.INTRA.VDW.0>
-2.78316

>  <SCORE.INTRA.norm>
0.260863

>  <SCORE.RESTR>
0.682112

>  <SCORE.RESTR.CAVITY>
0.682112

>  <SCORE.RESTR.norm>
0.0136422

>  <SCORE.SYSTEM>
0

>  <SCORE.SYSTEM.CONST>
0

>  <SCORE.SYSTEM.DIHEDRAL>
0

>  <SCORE.SYSTEM.norm>
0

>  <SCORE.heavy>
50

>  <SCORE.norm>
0.325283

$$$$
