FB1.pdb
  RxDock  10102001033D
librxdock.so/0.1.0
 59 58  0  0  0  0  0  0  0  0999 V2000
    5.0091   -9.6245   11.9368 C   0  0  0  0  0  0
    3.7776   -8.9405   11.3478 C   0  0  0  0  0  0
    4.1626   -7.7981   10.3933 C   0  0  0  0  0  0
    2.9606   -7.2199    9.6056 C   0  0  0  0  0  0
    1.9895   -6.3201   10.4470 C   0  0  0  0  0  0
    2.7885   -5.1074   10.9776 C   0  0  0  0  0  0
    0.7074   -5.8463    9.6411 C   0  0  0  0  0  0
    0.8874   -4.5887    8.6653 C   0  0  0  0  0  0
    1.7691   -4.5760    7.3421 C   0  0  0  0  0  0
    2.7043   -3.2325    7.1376 C   0  0  0  0  0  0
    3.7836   -3.2234    8.2189 C   0  0  0  0  0  0
    3.3820   -3.0592    5.7039 C   0  0  0  0  0  0
    2.6525   -3.4209    4.3054 C   0  0  0  0  0  0
    3.3180   -3.1427    2.9141 C   0  0  0  0  0  0
    2.4916   -3.4972    1.5948 C   0  0  0  0  0  0
    1.1232   -2.8179    1.1940 C   0  0  0  0  0  0
    1.1243   -1.3754    0.6223 C   0  0  0  0  0  0
    1.1755   -0.1999    1.6734 C   0  0  0  0  0  0
    2.3829   -0.1863    2.6191 C   0  0  0  0  0  0
    2.9775    1.1887    3.0360 C   0  0  0  0  0  0
    3.3901    1.4573    4.5135 C   0  0  0  0  0  0
    3.1139    0.3385    5.5082 C   0  0  0  0  0  0
    4.7951    1.9000    4.5947 N   0  0  0  0  0  0
    4.2077    1.3030    2.2760 O   0  0  0  0  0  0
    1.1475    1.0375    0.9538 O   0  0  0  0  0  0
    2.4550   -4.8442    4.3490 O   0  0  0  0  0  0
   -0.4466   -4.2316    8.2121 O   0  0  0  0  0  0
   -0.6358   -2.9514    7.7991 C   0  0  0  0  0  0
    0.1738   -2.0463    7.8679 O   0  0  0  0  0  0
   -1.9860   -2.8573    7.1439 C   0  0  0  0  0  0
   -3.0557   -2.2691    8.0779 C   0  0  0  0  0  0
   -2.5918   -0.9784    8.7651 C   0  0  0  0  0  0
   -2.9354   -0.9903   10.2365 C   0  0  0  0  0  0
   -2.3844   -0.2766   11.0676 O   0  0  0  0  0  0
   -3.9074   -1.8593   10.5512 O   0  0  0  0  0  0
   -4.2772   -1.9834    7.1934 C   0  0  0  0  0  0
   -4.2509   -2.0615    5.9745 O   0  0  0  0  0  0
   -5.3678   -1.5914    7.8663 O   0  0  0  0  0  0
    0.0518   -6.9882    8.9583 O   0  0  0  0  0  0
   -0.4338   -8.0285    9.7329 C   0  0  0  0  0  0
   -0.2504   -8.1442   10.9376 O   0  0  0  0  0  0
   -1.2418   -9.0410    8.9104 C   0  0  0  0  0  0
   -2.3383   -8.4362    7.9796 C   0  0  0  0  0  0
   -2.3281   -8.8388    6.4935 C   0  0  0  0  0  0
   -0.9525   -9.1534    5.9805 C   0  0  0  0  0  0
   -0.5373  -10.2664    5.6881 O   0  0  0  0  0  0
   -0.1911   -8.0566    5.8475 O   0  0  0  0  0  0
   -3.7746   -8.6142    8.4871 C   0  0  0  0  0  0
   -4.6721   -7.8419    8.2134 O   0  0  0  0  0  0
   -4.0089   -9.7504    9.1765 O   0  0  0  0  0  0
    5.4067    1.0929    4.4811 H   0  0  0  0  0  0
    4.9771    2.2372    5.5427 H   0  0  0  0  0  0
    3.9180    1.3241    1.3396 H   0  0  0  0  0  0
    1.8844    1.0349    0.3154 H   0  0  0  0  0  0
    3.2976   -5.2571    4.6021 H   0  0  0  0  0  0
   -4.2136   -1.8243   11.4777 H   0  0  0  0  0  0
   -6.2142   -1.6777    7.3614 H   0  0  0  0  0  0
    0.6769   -8.3567    5.5041 H   0  0  0  0  0  0
   -4.9010   -9.8179    9.5836 H   0  0  0  0  0  0
  1  2  1  0  0  0
  2  3  1  0  0  0
  3  4  1  0  0  0
  4  5  1  0  0  0
  5  6  1  0  0  0
  5  7  1  0  0  0
  7  8  1  0  0  0
  7 39  1  0  0  0
  8  9  1  0  0  0
  8 27  1  0  0  0
  9 10  1  0  0  0
 10 11  1  0  0  0
 10 12  1  0  0  0
 12 13  1  0  0  0
 13 14  1  0  0  0
 13 26  1  0  0  0
 14 15  1  0  0  0
 15 16  1  0  0  0
 16 17  1  0  0  0
 17 18  1  0  0  0
 18 19  1  0  0  0
 18 25  1  0  0  0
 19 20  1  0  0  0
 20 21  1  0  0  0
 20 24  1  0  0  0
 21 22  1  0  0  0
 21 23  1  0  0  0
 23 51  1  0  0  0
 23 52  1  0  0  0
 24 53  1  0  0  0
 25 54  1  0  0  0
 26 55  1  0  0  0
 27 28  1  0  0  0
 28 29  2  0  0  0
 28 30  1  0  0  0
 30 31  1  0  0  0
 31 32  1  0  0  0
 31 36  1  0  0  0
 32 33  1  0  0  0
 33 34  2  0  0  0
 33 35  1  0  0  0
 35 56  1  0  0  0
 36 37  2  0  0  0
 36 38  1  0  0  0
 38 57  1  0  0  0
 39 40  1  0  0  0
 40 41  2  0  0  0
 40 42  1  0  0  0
 42 43  1  0  0  0
 43 44  1  0  0  0
 43 48  1  0  0  0
 44 45  1  0  0  0
 45 46  2  0  0  0
 45 47  1  0  0  0
 47 58  1  0  0  0
 48 49  2  0  0  0
 48 50  1  0  0  0
 50 59  1  0  0  0
M  END
>  <AUTHOR>
    GENERATED BY OPEN BABEL 2.4.1

>  <CHROM.1>
171.07519032,73.94407631,61.16720683,-81.07601132,67.10120500,61.06342826
-136.20465465,156.16095195,67.27314566,38.98910366,175.67168646,-178.14186721
-49.20245152,62.75508879,75.54826528,-82.83161519,58.70428616,144.15330889
-55.65088901,136.94996647,-2.92790426,63.77037468,-76.90121120,-6.10785478
99.94511205,48.81977255,-134.95432455,-8.94527533,159.89445310,-174.03017673
-161.83670153,-7.45571848,-49.27566398,127.34869710,-29.85635160,151.94290084
108.96386217,-179.56548086,173.65551574,0.34733574,-4.16314468,6.96324220
-1.88285287,0.33179990,-0.56736131

>  <COMPND>
    UNNAMED

>  <MASTER>
        0    0    0    0    0    0    0    0  109    0  109    0

>  <Name>
FB1.pdb

>  <RI>
0

>  <Rbt.Current_Directory>
/home/fc/tossine/F10/p3/2_clust03

>  <Rbt.Executable>
rbdock/0.1.0

>  <Rbt.Library>
librxdock.so/0.1.0

>  <Rbt.Parameter_File>
/cluster/rxdock/data/scripts/dock.prm

>  <Rbt.Receptor>
rx_2.prm

>  <SCORE>
7.73534

>  <SCORE.INTER>
-5.64068

>  <SCORE.INTER.CONST>
1

>  <SCORE.INTER.POLAR>
-2.76765

>  <SCORE.INTER.REPUL>
0

>  <SCORE.INTER.ROT>
32

>  <SCORE.INTER.VDW>
-33.6307

>  <SCORE.INTER.norm>
-0.112814

>  <SCORE.INTRA>
12.6279

>  <SCORE.INTRA.DIHEDRAL>
11.2507

>  <SCORE.INTRA.DIHEDRAL.0>
47.3121

>  <SCORE.INTRA.POLAR>
1.47808

>  <SCORE.INTRA.POLAR.0>
-1.47808

>  <SCORE.INTRA.REPUL>
0.0994359

>  <SCORE.INTRA.REPUL.0>
0

>  <SCORE.INTRA.VDW>
1.47992

>  <SCORE.INTRA.VDW.0>
-2.78316

>  <SCORE.INTRA.norm>
0.252559

>  <SCORE.RESTR>
0.748088

>  <SCORE.RESTR.CAVITY>
0.748088

>  <SCORE.RESTR.norm>
0.0149618

>  <SCORE.SYSTEM>
0

>  <SCORE.SYSTEM.CONST>
0

>  <SCORE.SYSTEM.DIHEDRAL>
0

>  <SCORE.SYSTEM.norm>
0

>  <SCORE.heavy>
50

>  <SCORE.norm>
0.154707

$$$$
