FB1.pdb
  RxDock  10102000093D
librxdock.so/0.1.0
 59 58  0  0  0  0  0  0  0  0999 V2000
    2.5562   -8.7378   10.5301 C   0  0  0  0  0  0
    3.8676   -7.9617   10.6269 C   0  0  0  0  0  0
    3.6398   -6.5151   11.0955 C   0  0  0  0  0  0
    3.0314   -5.6006   10.0031 C   0  0  0  0  0  0
    1.5156   -5.8586    9.6931 C   0  0  0  0  0  0
    0.6715   -5.1662   10.7879 C   0  0  0  0  0  0
    1.0742   -5.3773    8.2469 C   0  0  0  0  0  0
    1.7463   -6.1217    6.9978 C   0  0  0  0  0  0
    1.4991   -7.6402    6.5963 C   0  0  0  0  0  0
    0.0821   -7.9324    5.8037 C   0  0  0  0  0  0
   -0.2499   -9.4179    5.9353 C   0  0  0  0  0  0
   -1.1729   -7.0612    6.2628 C   0  0  0  0  0  0
   -2.6917   -7.3289    5.7729 C   0  0  0  0  0  0
   -3.6437   -8.3387    6.5010 C   0  0  0  0  0  0
   -4.7806   -7.7531    7.4569 C   0  0  0  0  0  0
   -5.6214   -8.6217    8.4733 C   0  0  0  0  0  0
   -6.2389   -9.9651    8.0027 C   0  0  0  0  0  0
   -5.2256  -11.1202    7.6446 C   0  0  0  0  0  0
   -4.1520  -11.4318    8.6946 C   0  0  0  0  0  0
   -3.4622  -12.8250    8.6529 C   0  0  0  0  0  0
   -2.7147  -13.2999    7.3718 C   0  0  0  0  0  0
   -1.5148  -12.4685    6.9401 C   0  0  0  0  0  0
   -2.3587  -14.7282    7.4702 N   0  0  0  0  0  0
   -2.4413  -12.7607    9.6812 O   0  0  0  0  0  0
   -5.9819  -12.3110    7.4001 O   0  0  0  0  0  0
   -3.3451   -6.0530    5.8805 O   0  0  0  0  0  0
    1.3548   -5.3692    5.8176 O   0  0  0  0  0  0
    1.9524   -4.1641    5.6281 C   0  0  0  0  0  0
    2.8491   -3.6921    6.3008 O   0  0  0  0  0  0
    1.3897   -3.5450    4.3785 C   0  0  0  0  0  0
    2.0975   -2.2346    3.9986 C   0  0  0  0  0  0
    2.2252   -1.2694    5.1841 C   0  0  0  0  0  0
    2.9846   -0.0230    4.7929 C   0  0  0  0  0  0
    3.8055    0.5271    5.5191 O   0  0  0  0  0  0
    2.6765    0.4282    3.5680 O   0  0  0  0  0  0
    3.4911   -2.6379    3.4972 C   0  0  0  0  0  0
    4.2512   -1.8593    2.9418 O   0  0  0  0  0  0
    3.7894   -3.9323    3.6744 O   0  0  0  0  0  0
   -0.4033   -5.3209    8.1292 O   0  0  0  0  0  0
   -1.0364   -4.1096    8.3525 C   0  0  0  0  0  0
   -0.4847   -3.1037    8.7793 O   0  0  0  0  0  0
   -2.5296   -4.1581    8.0027 C   0  0  0  0  0  0
   -3.1700   -2.8005    7.5767 C   0  0  0  0  0  0
   -3.6533   -1.8489    8.6863 C   0  0  0  0  0  0
   -2.5278   -1.2718    9.4955 C   0  0  0  0  0  0
   -1.9577   -1.8285   10.4237 O   0  0  0  0  0  0
   -2.1740   -0.0456    9.0811 O   0  0  0  0  0  0
   -2.3194   -1.9707    6.6071 C   0  0  0  0  0  0
   -2.6614   -1.7338    5.4654 O   0  0  0  0  0  0
   -1.2051   -1.4236    7.1365 O   0  0  0  0  0  0
   -1.7174  -14.9654    6.7146 H   0  0  0  0  0  0
   -3.1961  -15.2867    7.2900 H   0  0  0  0  0  0
   -2.9373  -12.5994   10.5114 H   0  0  0  0  0  0
   -6.5141  -12.5018    8.1943 H   0  0  0  0  0  0
   -4.2178   -6.1255    5.4590 H   0  0  0  0  0  0
    3.1380    1.2447    3.2965 H   0  0  0  0  0  0
    4.6393   -4.2181    3.2565 H   0  0  0  0  0  0
   -1.3682    0.1993    9.5831 H   0  0  0  0  0  0
   -0.6411   -0.9251    6.5042 H   0  0  0  0  0  0
  1  2  1  0  0  0
  2  3  1  0  0  0
  3  4  1  0  0  0
  4  5  1  0  0  0
  5  6  1  0  0  0
  5  7  1  0  0  0
  7  8  1  0  0  0
  7 39  1  0  0  0
  8  9  1  0  0  0
  8 27  1  0  0  0
  9 10  1  0  0  0
 10 11  1  0  0  0
 10 12  1  0  0  0
 12 13  1  0  0  0
 13 14  1  0  0  0
 13 26  1  0  0  0
 14 15  1  0  0  0
 15 16  1  0  0  0
 16 17  1  0  0  0
 17 18  1  0  0  0
 18 19  1  0  0  0
 18 25  1  0  0  0
 19 20  1  0  0  0
 20 21  1  0  0  0
 20 24  1  0  0  0
 21 22  1  0  0  0
 21 23  1  0  0  0
 23 51  1  0  0  0
 23 52  1  0  0  0
 24 53  1  0  0  0
 25 54  1  0  0  0
 26 55  1  0  0  0
 27 28  1  0  0  0
 28 29  2  0  0  0
 28 30  1  0  0  0
 30 31  1  0  0  0
 31 32  1  0  0  0
 31 36  1  0  0  0
 32 33  1  0  0  0
 33 34  2  0  0  0
 33 35  1  0  0  0
 35 56  1  0  0  0
 36 37  2  0  0  0
 36 38  1  0  0  0
 38 57  1  0  0  0
 39 40  1  0  0  0
 40 41  2  0  0  0
 40 42  1  0  0  0
 42 43  1  0  0  0
 43 44  1  0  0  0
 43 48  1  0  0  0
 44 45  1  0  0  0
 45 46  2  0  0  0
 45 47  1  0  0  0
 47 58  1  0  0  0
 48 49  2  0  0  0
 48 50  1  0  0  0
 50 59  1  0  0  0
M  END
>  <AUTHOR>
    GENERATED BY OPEN BABEL 2.4.1

>  <CHROM.1>
-74.36858004,73.22789647,79.76135927,64.20607822,67.67513770,95.15814452
78.51561479,73.29836003,-159.80115242,-170.89127729,86.63766549,103.38956145
170.71828511,-167.25080521,-46.72879788,66.87222429,50.65706212,158.97492949
-57.28290501,57.61889519,62.32720572,60.69813548,-168.87144000,5.31133520
-174.51854478,-48.79472483,177.19638849,169.55266155,-140.09451401,178.68973192
173.03699344,-8.09240092,-152.56824435,-84.05683942,68.04049734,114.42811581
-81.65591654,-172.85013332,177.43609936,-0.54106895,-5.78729610,7.22364992
-2.05825402,0.21394140,-0.10941237

>  <COMPND>
    UNNAMED

>  <MASTER>
        0    0    0    0    0    0    0    0  109    0  109    0

>  <Name>
FB1.pdb

>  <RI>
0

>  <Rbt.Current_Directory>
/home/fc/tossine/F10/p3/2_clust03

>  <Rbt.Executable>
rbdock/0.1.0

>  <Rbt.Library>
librxdock.so/0.1.0

>  <Rbt.Parameter_File>
/cluster/rxdock/data/scripts/dock.prm

>  <Rbt.Receptor>
rx_1.prm

>  <SCORE>
2.20574

>  <SCORE.INTER>
-2.94953

>  <SCORE.INTER.CONST>
1

>  <SCORE.INTER.POLAR>
-3.09987

>  <SCORE.INTER.REPUL>
0.0182843

>  <SCORE.INTER.ROT>
32

>  <SCORE.INTER.VDW>
-29.9014

>  <SCORE.INTER.norm>
-0.0589906

>  <SCORE.INTRA>
5.15064

>  <SCORE.INTRA.DIHEDRAL>
-6.52993

>  <SCORE.INTRA.DIHEDRAL.0>
47.3121

>  <SCORE.INTRA.POLAR>
1.47808

>  <SCORE.INTRA.POLAR.0>
-1.47808

>  <SCORE.INTRA.REPUL>
0.00984987

>  <SCORE.INTRA.REPUL.0>
0

>  <SCORE.INTRA.VDW>
3.34089

>  <SCORE.INTRA.VDW.0>
-2.78316

>  <SCORE.INTRA.norm>
0.103013

>  <SCORE.RESTR>
0.00463613

>  <SCORE.RESTR.CAVITY>
0.00463613

>  <SCORE.RESTR.norm>
9.27227e-05

>  <SCORE.SYSTEM>
0

>  <SCORE.SYSTEM.CONST>
0

>  <SCORE.SYSTEM.DIHEDRAL>
0

>  <SCORE.SYSTEM.norm>
0

>  <SCORE.heavy>
50

>  <SCORE.norm>
0.0441149

$$$$
