FB1.pdb
  RxDock  10102001463D
librxdock.so/0.1.0
 59 58  0  0  0  0  0  0  0  0999 V2000
    3.7571   -0.8173    5.9705 C   0  0  0  0  0  0
    4.5323   -2.0148    6.5151 C   0  0  0  0  0  0
    4.0932   -2.3753    7.9439 C   0  0  0  0  0  0
    2.6533   -2.9411    8.0233 C   0  0  0  0  0  0
    2.5049   -4.4372    7.5761 C   0  0  0  0  0  0
    2.8318   -5.3408    8.7874 C   0  0  0  0  0  0
    1.0747   -4.7814    6.9810 C   0  0  0  0  0  0
    0.7224   -4.1738    5.5412 C   0  0  0  0  0  0
   -0.5307   -3.2494    5.2199 C   0  0  0  0  0  0
   -0.8985   -2.1402    6.3843 C   0  0  0  0  0  0
   -0.0397   -0.8969    6.1584 C   0  0  0  0  0  0
   -2.4329   -1.7177    6.4933 C   0  0  0  0  0  0
   -3.6636   -2.7681    6.5233 C   0  0  0  0  0  0
   -3.5966   -4.1183    7.3163 C   0  0  0  0  0  0
   -4.9226   -5.0013    7.4217 C   0  0  0  0  0  0
   -5.1235   -6.1837    8.4493 C   0  0  0  0  0  0
   -6.3905   -6.2118    9.3444 C   0  0  0  0  0  0
   -6.8745   -4.8273    9.9258 C   0  0  0  0  0  0
   -7.6469   -3.9182    8.9617 C   0  0  0  0  0  0
   -7.9884   -2.4734    9.4246 C   0  0  0  0  0  0
   -6.9361   -1.6184   10.1907 C   0  0  0  0  0  0
   -7.2570   -0.1398   10.3585 C   0  0  0  0  0  0
   -6.6012   -2.2358   11.4880 N   0  0  0  0  0  0
   -8.2425   -1.7444    8.1967 O   0  0  0  0  0  0
   -7.7022   -5.0911   11.0638 O   0  0  0  0  0  0
   -4.7555   -2.0413    7.1115 O   0  0  0  0  0  0
    1.8700   -3.3746    5.1456 O   0  0  0  0  0  0
    2.6091   -3.8310    4.1012 C   0  0  0  0  0  0
    3.5182   -4.6368    4.1610 O   0  0  0  0  0  0
    2.0497   -3.2495    2.8322 C   0  0  0  0  0  0
    2.5956   -1.8435    2.5362 C   0  0  0  0  0  0
    3.8144   -1.8692    1.6049 C   0  0  0  0  0  0
    5.0705   -2.2351    2.3609 C   0  0  0  0  0  0
    5.1049   -2.4122    3.5738 O   0  0  0  0  0  0
    6.1520   -2.3507    1.5760 O   0  0  0  0  0  0
    1.4442   -1.0748    1.8735 C   0  0  0  0  0  0
    1.1288   -1.2248    0.7028 O   0  0  0  0  0  0
    0.8408   -0.1847    2.6732 O   0  0  0  0  0  0
    0.8025   -6.2378    7.0498 O   0  0  0  0  0  0
    1.3666   -7.0598    6.0885 C   0  0  0  0  0  0
    1.9659   -6.6630    5.0976 O   0  0  0  0  0  0
    1.1601   -8.5482    6.3989 C   0  0  0  0  0  0
   -0.3237   -9.0155    6.5193 C   0  0  0  0  0  0
   -0.5947  -10.4306    7.0619 C   0  0  0  0  0  0
    0.1952  -11.4922    6.3521 C   0  0  0  0  0  0
    0.9425  -12.3013    6.8843 O   0  0  0  0  0  0
   -0.0140  -11.4874    5.0267 O   0  0  0  0  0  0
   -1.2350   -8.0526    7.2905 C   0  0  0  0  0  0
   -2.1336   -7.4282    6.7621 O   0  0  0  0  0  0
   -1.0454   -8.0202    8.6262 O   0  0  0  0  0  0
   -7.1462   -3.0892   11.6024 H   0  0  0  0  0  0
   -6.9207   -1.6169   12.2365 H   0  0  0  0  0  0
   -8.9876   -2.2227    7.7755 H   0  0  0  0  0  0
   -8.3507   -5.7757   10.8161 H   0  0  0  0  0  0
   -5.5759   -2.5273    6.9240 H   0  0  0  0  0  0
    6.0308   -2.0546    0.6535 H   0  0  0  0  0  0
    1.2855   -0.0509    3.5469 H   0  0  0  0  0  0
    0.5183  -12.2223    4.6553 H   0  0  0  0  0  0
   -1.5897   -7.3610    9.1115 H   0  0  0  0  0  0
  1  2  1  0  0  0
  2  3  1  0  0  0
  3  4  1  0  0  0
  4  5  1  0  0  0
  5  6  1  0  0  0
  5  7  1  0  0  0
  7  8  1  0  0  0
  7 39  1  0  0  0
  8  9  1  0  0  0
  8 27  1  0  0  0
  9 10  1  0  0  0
 10 11  1  0  0  0
 10 12  1  0  0  0
 12 13  1  0  0  0
 13 14  1  0  0  0
 13 26  1  0  0  0
 14 15  1  0  0  0
 15 16  1  0  0  0
 16 17  1  0  0  0
 17 18  1  0  0  0
 18 19  1  0  0  0
 18 25  1  0  0  0
 19 20  1  0  0  0
 20 21  1  0  0  0
 20 24  1  0  0  0
 21 22  1  0  0  0
 21 23  1  0  0  0
 23 51  1  0  0  0
 23 52  1  0  0  0
 24 53  1  0  0  0
 25 54  1  0  0  0
 26 55  1  0  0  0
 27 28  1  0  0  0
 28 29  2  0  0  0
 28 30  1  0  0  0
 30 31  1  0  0  0
 31 32  1  0  0  0
 31 36  1  0  0  0
 32 33  1  0  0  0
 33 34  2  0  0  0
 33 35  1  0  0  0
 35 56  1  0  0  0
 36 37  2  0  0  0
 36 38  1  0  0  0
 38 57  1  0  0  0
 39 40  1  0  0  0
 40 41  2  0  0  0
 40 42  1  0  0  0
 42 43  1  0  0  0
 43 44  1  0  0  0
 43 48  1  0  0  0
 44 45  1  0  0  0
 45 46  2  0  0  0
 45 47  1  0  0  0
 47 58  1  0  0  0
 48 49  2  0  0  0
 48 50  1  0  0  0
 50 59  1  0  0  0
M  END
>  <AUTHOR>
    GENERATED BY OPEN BABEL 2.4.1

>  <CHROM.1>
68.31656281,77.32559791,84.97716251,71.04942361,-123.20886162,-79.47259419
39.15753294,111.74812415,85.01400005,47.61091724,40.00771413,172.94331220
164.02347042,-164.65799747,128.62393106,-39.72875817,78.47835530,-172.35470875
-48.21911553,41.83083150,168.33961231,59.30471210,-0.64661466,-85.51984314
84.25455893,94.23520131,-79.22798642,-77.84629532,-3.73099045,9.02977631
7.56938313,-7.94098896,59.06429999,-169.78189710,-51.26431284,112.31534757
124.72125980,-178.46944404,176.22984422,-0.67148005,-4.36131018,6.39943866
0.15224875,0.48627294,-0.20667243

>  <COMPND>
    UNNAMED

>  <MASTER>
        0    0    0    0    0    0    0    0  109    0  109    0

>  <Name>
FB1.pdb

>  <RI>
0

>  <Rbt.Current_Directory>
/home/fc/tossine/F10/p3/2_clust03

>  <Rbt.Executable>
rbdock/0.1.0

>  <Rbt.Library>
librxdock.so/0.1.0

>  <Rbt.Parameter_File>
/cluster/rxdock/data/scripts/dock.prm

>  <Rbt.Receptor>
rx_3.prm

>  <SCORE>
17.4684

>  <SCORE.INTER>
3.78341

>  <SCORE.INTER.CONST>
1

>  <SCORE.INTER.POLAR>
-1.8817

>  <SCORE.INTER.REPUL>
0.584494

>  <SCORE.INTER.ROT>
32

>  <SCORE.INTER.VDW>
-30.1413

>  <SCORE.INTER.norm>
0.0756681

>  <SCORE.INTRA>
13.6751

>  <SCORE.INTRA.DIHEDRAL>
32.4825

>  <SCORE.INTRA.DIHEDRAL.0>
47.3121

>  <SCORE.INTRA.POLAR>
0.518417

>  <SCORE.INTRA.POLAR.0>
-1.47808

>  <SCORE.INTRA.REPUL>
0

>  <SCORE.INTRA.REPUL.0>
0

>  <SCORE.INTRA.VDW>
-4.32872

>  <SCORE.INTRA.VDW.0>
-2.78316

>  <SCORE.INTRA.norm>
0.273503

>  <SCORE.RESTR>
0.00979976

>  <SCORE.RESTR.CAVITY>
0.00979976

>  <SCORE.RESTR.norm>
0.000195995

>  <SCORE.SYSTEM>
0

>  <SCORE.SYSTEM.CONST>
0

>  <SCORE.SYSTEM.DIHEDRAL>
0

>  <SCORE.SYSTEM.norm>
0

>  <SCORE.heavy>
50

>  <SCORE.norm>
0.349367

$$$$
