FB1.pdb
  RxDock  10102001463D
librxdock.so/0.1.0
 59 58  0  0  0  0  0  0  0  0999 V2000
   -6.6110   -5.8872    7.2760 C   0  0  0  0  0  0
   -5.2026   -6.0625    6.7131 C   0  0  0  0  0  0
   -4.1295   -5.5821    7.7040 C   0  0  0  0  0  0
   -3.9717   -4.0415    7.7444 C   0  0  0  0  0  0
   -3.3097   -3.4106    6.4700 C   0  0  0  0  0  0
   -4.0264   -2.0760    6.1608 C   0  0  0  0  0  0
   -1.7440   -3.1946    6.6108 C   0  0  0  0  0  0
   -0.8942   -4.4137    7.2091 C   0  0  0  0  0  0
   -0.7027   -4.7230    8.7569 C   0  0  0  0  0  0
    0.8529   -4.6397    9.2996 C   0  0  0  0  0  0
    0.9217   -5.2957   10.6777 C   0  0  0  0  0  0
    1.9644   -5.2758    8.3484 C   0  0  0  0  0  0
    2.8920   -6.5381    8.7543 C   0  0  0  0  0  0
    2.3443   -8.0061    8.7902 C   0  0  0  0  0  0
    2.2676   -8.7516   10.2000 C   0  0  0  0  0  0
    3.4166   -9.6623   10.7873 C   0  0  0  0  0  0
    4.8988   -9.2572   10.5718 C   0  0  0  0  0  0
    5.9656  -10.4169   10.6501 C   0  0  0  0  0  0
    7.1316  -10.3357    9.6569 C   0  0  0  0  0  0
    7.6305   -8.9294    9.2190 C   0  0  0  0  0  0
    8.8200   -8.7861    8.2241 C   0  0  0  0  0  0
    9.6188  -10.0497    7.9367 C   0  0  0  0  0  0
    8.3823   -8.1425    6.9708 N   0  0  0  0  0  0
    6.4973   -8.3330    8.5378 O   0  0  0  0  0  0
    6.5001  -10.4365   11.9782 O   0  0  0  0  0  0
    3.9439   -6.5540    7.7746 O   0  0  0  0  0  0
   -1.4883   -5.6260    6.6707 O   0  0  0  0  0  0
   -1.0956   -6.0056    5.4269 C   0  0  0  0  0  0
   -0.4534   -5.3367    4.6398 O   0  0  0  0  0  0
   -1.5004   -7.4385    5.2166 C   0  0  0  0  0  0
   -0.9572   -8.3720    6.3102 C   0  0  0  0  0  0
   -1.8843   -9.5640    6.5806 C   0  0  0  0  0  0
   -3.1395   -9.1263    7.2992 C   0  0  0  0  0  0
   -3.2330   -9.0570    8.5199 O   0  0  0  0  0  0
   -4.1485   -8.8167    6.4717 O   0  0  0  0  0  0
    0.4034   -8.8693    5.8028 C   0  0  0  0  0  0
    0.5608   -9.9609    5.2773 O   0  0  0  0  0  0
    1.4198   -8.0255    6.0282 O   0  0  0  0  0  0
   -1.1593   -2.6775    5.3497 O   0  0  0  0  0  0
   -0.2174   -1.6650    5.4265 C   0  0  0  0  0  0
    0.3846   -1.3497    6.4446 O   0  0  0  0  0  0
   -0.0008   -0.9657    4.0780 C   0  0  0  0  0  0
    1.4757   -0.9020    3.5775 C   0  0  0  0  0  0
    1.8810    0.2721    2.6678 C   0  0  0  0  0  0
    0.9212    0.4949    1.5348 C   0  0  0  0  0  0
   -0.1893   -0.0077    1.4312 O   0  0  0  0  0  0
    1.4017    1.3452    0.6148 O   0  0  0  0  0  0
    2.5299   -1.0002    4.6870 C   0  0  0  0  0  0
    3.1942   -1.9992    4.8801 O   0  0  0  0  0  0
    2.7534    0.1383    5.3763 O   0  0  0  0  0  0
    8.3204   -7.1358    7.1162 H   0  0  0  0  0  0
    7.4248   -8.4388    6.7686 H   0  0  0  0  0  0
    6.7548   -7.3964    8.4042 H   0  0  0  0  0  0
    7.1667  -11.1462   12.0274 H   0  0  0  0  0  0
    3.5444   -6.7356    6.9074 H   0  0  0  0  0  0
   -3.9720   -8.9705    5.5237 H   0  0  0  0  0  0
    1.1440   -7.1065    6.2692 H   0  0  0  0  0  0
    2.3170    1.5669    0.8875 H   0  0  0  0  0  0
    2.2424    0.9207    5.0714 H   0  0  0  0  0  0
  1  2  1  0  0  0
  2  3  1  0  0  0
  3  4  1  0  0  0
  4  5  1  0  0  0
  5  6  1  0  0  0
  5  7  1  0  0  0
  7  8  1  0  0  0
  7 39  1  0  0  0
  8  9  1  0  0  0
  8 27  1  0  0  0
  9 10  1  0  0  0
 10 11  1  0  0  0
 10 12  1  0  0  0
 12 13  1  0  0  0
 13 14  1  0  0  0
 13 26  1  0  0  0
 14 15  1  0  0  0
 15 16  1  0  0  0
 16 17  1  0  0  0
 17 18  1  0  0  0
 18 19  1  0  0  0
 18 25  1  0  0  0
 19 20  1  0  0  0
 20 21  1  0  0  0
 20 24  1  0  0  0
 21 22  1  0  0  0
 21 23  1  0  0  0
 23 51  1  0  0  0
 23 52  1  0  0  0
 24 53  1  0  0  0
 25 54  1  0  0  0
 26 55  1  0  0  0
 27 28  1  0  0  0
 28 29  2  0  0  0
 28 30  1  0  0  0
 30 31  1  0  0  0
 31 32  1  0  0  0
 31 36  1  0  0  0
 32 33  1  0  0  0
 33 34  2  0  0  0
 33 35  1  0  0  0
 35 56  1  0  0  0
 36 37  2  0  0  0
 36 38  1  0  0  0
 38 57  1  0  0  0
 39 40  1  0  0  0
 40 41  2  0  0  0
 40 42  1  0  0  0
 42 43  1  0  0  0
 43 44  1  0  0  0
 43 48  1  0  0  0
 44 45  1  0  0  0
 45 46  2  0  0  0
 45 47  1  0  0  0
 47 58  1  0  0  0
 48 49  2  0  0  0
 48 50  1  0  0  0
 50 59  1  0  0  0
M  END
>  <AUTHOR>
    GENERATED BY OPEN BABEL 2.4.1

>  <CHROM.1>
-77.97425657,-70.94273827,141.48495543,46.14368690,-83.54845642,137.39392714
-117.38589283,83.09183590,-165.76002206,-116.92026421,74.70509831,-114.13559584
-64.67125924,-92.16238128,37.89295755,-156.51806685,141.99463069,31.67780922
-179.41366612,179.38421507,-11.69418101,170.24335694,79.33520387,-11.73260578
-55.09466319,149.02540075,-71.76192964,-99.43705242,-88.38878037,4.11609620
-15.28690444,16.30404814,-126.06244208,-151.67926349,-48.32467116,105.72046746
12.46721123,4.13321463,-2.31978414,1.05421302,-5.66704805,6.85369977,2.27147910
-0.03589769,-0.54769746

>  <COMPND>
    UNNAMED

>  <MASTER>
        0    0    0    0    0    0    0    0  109    0  109    0

>  <Name>
FB1.pdb

>  <RI>
0

>  <Rbt.Current_Directory>
/home/fc/tossine/F10/p3/2_clust03

>  <Rbt.Executable>
rbdock/0.1.0

>  <Rbt.Library>
librxdock.so/0.1.0

>  <Rbt.Parameter_File>
/cluster/rxdock/data/scripts/dock.prm

>  <Rbt.Receptor>
rx_3.prm

>  <SCORE>
28.9798

>  <SCORE.INTER>
6.19562

>  <SCORE.INTER.CONST>
1

>  <SCORE.INTER.POLAR>
-3.02639

>  <SCORE.INTER.REPUL>
0.996324

>  <SCORE.INTER.ROT>
32

>  <SCORE.INTER.VDW>
-25.8963

>  <SCORE.INTER.norm>
0.123912

>  <SCORE.INTRA>
22.0405

>  <SCORE.INTRA.DIHEDRAL>
30.7232

>  <SCORE.INTRA.DIHEDRAL.0>
47.3121

>  <SCORE.INTRA.POLAR>
1.46847

>  <SCORE.INTRA.POLAR.0>
-1.47808

>  <SCORE.INTRA.REPUL>
0.221769

>  <SCORE.INTRA.REPUL.0>
0

>  <SCORE.INTRA.VDW>
0.57727

>  <SCORE.INTRA.VDW.0>
-2.78316

>  <SCORE.INTRA.norm>
0.44081

>  <SCORE.RESTR>
0.743635

>  <SCORE.RESTR.CAVITY>
0.743635

>  <SCORE.RESTR.norm>
0.0148727

>  <SCORE.SYSTEM>
0

>  <SCORE.SYSTEM.CONST>
0

>  <SCORE.SYSTEM.DIHEDRAL>
0

>  <SCORE.SYSTEM.norm>
0

>  <SCORE.heavy>
50

>  <SCORE.norm>
0.579596

$$$$
