FB1.pdb
  RxDock  10102001053D
librxdock.so/0.1.0
 59 58  0  0  0  0  0  0  0  0999 V2000
   -2.7351   -1.3941    9.9374 C   0  0  0  0  0  0
   -2.3657   -1.2547    8.4625 C   0  0  0  0  0  0
   -1.8940   -2.5906    7.8649 C   0  0  0  0  0  0
   -0.4345   -2.9525    8.2371 C   0  0  0  0  0  0
    0.5350   -3.1294    7.0168 C   0  0  0  0  0  0
    1.9888   -3.0867    7.5414 C   0  0  0  0  0  0
    0.2706   -4.4545    6.1849 C   0  0  0  0  0  0
   -0.7252   -5.5303    6.8307 C   0  0  0  0  0  0
   -1.6078   -6.5681    6.0108 C   0  0  0  0  0  0
   -3.2319   -6.2805    6.0385 C   0  0  0  0  0  0
   -3.9528   -7.5966    6.3256 C   0  0  0  0  0  0
   -3.7307   -5.1631    7.0620 C   0  0  0  0  0  0
   -5.2165   -4.5219    7.0524 C   0  0  0  0  0  0
   -6.4435   -5.2347    7.7176 C   0  0  0  0  0  0
   -6.3091   -5.7161    9.2340 C   0  0  0  0  0  0
   -7.0036   -7.0073    9.8213 C   0  0  0  0  0  0
   -6.9120   -8.3461    9.0424 C   0  0  0  0  0  0
   -7.8627   -9.5093    9.5244 C   0  0  0  0  0  0
   -7.5671  -10.9054    8.9622 C   0  0  0  0  0  0
   -7.5868  -11.0983    7.4193 C   0  0  0  0  0  0
   -6.7273  -12.2113    6.7499 C   0  0  0  0  0  0
   -6.5923  -13.5178    7.5193 C   0  0  0  0  0  0
   -7.1732  -12.4582    5.3655 N   0  0  0  0  0  0
   -8.9602  -11.4475    7.1100 O   0  0  0  0  0  0
   -7.7959   -9.5709   10.9532 O   0  0  0  0  0  0
   -5.0842   -3.2725    7.7512 O   0  0  0  0  0  0
    0.0854   -6.3601    7.7063 O   0  0  0  0  0  0
    1.1669   -6.9679    7.1529 C   0  0  0  0  0  0
    1.5625   -6.8320    6.0108 O   0  0  0  0  0  0
    1.8623   -7.7665    8.2206 C   0  0  0  0  0  0
    1.8635   -7.0553    9.5832 C   0  0  0  0  0  0
    2.0138   -5.5342    9.4531 C   0  0  0  0  0  0
    2.9189   -4.9818   10.5297 C   0  0  0  0  0  0
    2.5120   -4.5557   11.6052 O   0  0  0  0  0  0
    4.2183   -5.0027   10.1980 O   0  0  0  0  0  0
    0.5177   -7.3960   10.2380 C   0  0  0  0  0  0
   -0.2629   -8.2122    9.7723 O   0  0  0  0  0  0
    0.2441   -6.6864   11.3414 O   0  0  0  0  0  0
   -0.0865   -4.1422    4.7796 O   0  0  0  0  0  0
    0.3182   -5.0184    3.7864 C   0  0  0  0  0  0
    0.4926   -6.2194    3.9460 O   0  0  0  0  0  0
    0.5291   -4.3160    2.4386 C   0  0  0  0  0  0
    1.1640   -2.8925    2.5087 C   0  0  0  0  0  0
    1.8419   -2.3397    1.2417 C   0  0  0  0  0  0
    3.2359   -2.8625    1.0467 C   0  0  0  0  0  0
    4.2112   -2.5630    1.7216 O   0  0  0  0  0  0
    3.3181   -3.7395    0.0346 O   0  0  0  0  0  0
    0.2237   -1.7999    3.0325 C   0  0  0  0  0  0
    0.4221   -1.2000    4.0705 O   0  0  0  0  0  0
   -0.7926   -1.4666    2.2095 O   0  0  0  0  0  0
   -8.1818  -12.6041    5.3603 H   0  0  0  0  0  0
   -6.7770  -13.3458    5.0481 H   0  0  0  0  0  0
   -9.4550  -10.6058    7.2000 H   0  0  0  0  0  0
   -8.3200   -8.8324   11.3144 H   0  0  0  0  0  0
   -5.8748   -2.7388    7.5652 H   0  0  0  0  0  0
    4.4043   -4.9672    9.2401 H   0  0  0  0  0  0
    0.8460   -5.9160   11.4932 H   0  0  0  0  0  0
    2.5778   -3.5357   -0.5751 H   0  0  0  0  0  0
   -0.9812   -2.1123    1.4927 H   0  0  0  0  0  0
  1  2  1  0  0  0
  2  3  1  0  0  0
  3  4  1  0  0  0
  4  5  1  0  0  0
  5  6  1  0  0  0
  5  7  1  0  0  0
  7  8  1  0  0  0
  7 39  1  0  0  0
  8  9  1  0  0  0
  8 27  1  0  0  0
  9 10  1  0  0  0
 10 11  1  0  0  0
 10 12  1  0  0  0
 12 13  1  0  0  0
 13 14  1  0  0  0
 13 26  1  0  0  0
 14 15  1  0  0  0
 15 16  1  0  0  0
 16 17  1  0  0  0
 17 18  1  0  0  0
 18 19  1  0  0  0
 18 25  1  0  0  0
 19 20  1  0  0  0
 20 21  1  0  0  0
 20 24  1  0  0  0
 21 22  1  0  0  0
 21 23  1  0  0  0
 23 51  1  0  0  0
 23 52  1  0  0  0
 24 53  1  0  0  0
 25 54  1  0  0  0
 26 55  1  0  0  0
 27 28  1  0  0  0
 28 29  2  0  0  0
 28 30  1  0  0  0
 30 31  1  0  0  0
 31 32  1  0  0  0
 31 36  1  0  0  0
 32 33  1  0  0  0
 33 34  2  0  0  0
 33 35  1  0  0  0
 35 56  1  0  0  0
 36 37  2  0  0  0
 36 38  1  0  0  0
 38 57  1  0  0  0
 39 40  1  0  0  0
 40 41  2  0  0  0
 40 42  1  0  0  0
 42 43  1  0  0  0
 43 44  1  0  0  0
 43 48  1  0  0  0
 44 45  1  0  0  0
 45 46  2  0  0  0
 45 47  1  0  0  0
 47 58  1  0  0  0
 48 49  2  0  0  0
 48 50  1  0  0  0
 50 59  1  0  0  0
M  END
>  <AUTHOR>
    GENERATED BY OPEN BABEL 2.4.1

>  <CHROM.1>
-78.27525865,-120.47996679,164.25197744,-10.80129129,152.58240018,146.48652304
-110.36253527,-55.40922306,-133.63684601,167.56263921,81.59414735,52.08965308
164.62132068,-146.52708772,47.18188986,-167.88192341,-167.42678483,-58.36094906
76.06644618,152.63579966,36.21434927,74.20049176,-50.75654092,3.98127698
-38.10272756,-36.11143503,-140.30976938,8.06524656,-92.81629618,26.63973757
11.65755283,28.57900464,38.08705565,159.27136734,-80.84638676,115.55655660
-71.04155796,24.98450766,16.60707658,-1.64550351,-5.82304975,6.89141989,-0.48415224
0.54711303,1.82171321

>  <COMPND>
    UNNAMED

>  <MASTER>
        0    0    0    0    0    0    0    0  109    0  109    0

>  <Name>
FB1.pdb

>  <RI>
0

>  <Rbt.Current_Directory>
/home/fc/tossine/F10/p3/2_clust03

>  <Rbt.Executable>
rbdock/0.1.0

>  <Rbt.Library>
librxdock.so/0.1.0

>  <Rbt.Parameter_File>
/cluster/rxdock/data/scripts/dock.prm

>  <Rbt.Receptor>
rx_2.prm

>  <SCORE>
42.889

>  <SCORE.INTER>
16.1761

>  <SCORE.INTER.CONST>
1

>  <SCORE.INTER.POLAR>
-1.65382

>  <SCORE.INTER.REPUL>
1.88173

>  <SCORE.INTER.ROT>
32

>  <SCORE.INTER.VDW>
-25.0096

>  <SCORE.INTER.norm>
0.323522

>  <SCORE.INTRA>
26.1792

>  <SCORE.INTRA.DIHEDRAL>
34.9628

>  <SCORE.INTRA.DIHEDRAL.0>
47.3121

>  <SCORE.INTRA.POLAR>
1.40861

>  <SCORE.INTRA.POLAR.0>
-1.47808

>  <SCORE.INTRA.REPUL>
0

>  <SCORE.INTRA.REPUL.0>
0

>  <SCORE.INTRA.VDW>
3.90851

>  <SCORE.INTRA.VDW.0>
-2.78316

>  <SCORE.INTRA.norm>
0.523584

>  <SCORE.RESTR>
0.533722

>  <SCORE.RESTR.CAVITY>
0.533722

>  <SCORE.RESTR.norm>
0.0106744

>  <SCORE.SYSTEM>
0

>  <SCORE.SYSTEM.CONST>
0

>  <SCORE.SYSTEM.DIHEDRAL>
0

>  <SCORE.SYSTEM.norm>
0

>  <SCORE.heavy>
50

>  <SCORE.norm>
0.857781

$$$$
