FB1.pdb
  RxDock  10102000123D
librxdock.so/0.1.0
 59 58  0  0  0  0  0  0  0  0999 V2000
   -1.5205    0.4282    3.9220 C   0  0  0  0  0  0
   -1.0390   -0.4807    5.0504 C   0  0  0  0  0  0
   -1.9478   -1.7095    5.2190 C   0  0  0  0  0  0
   -1.4053   -2.7439    6.2365 C   0  0  0  0  0  0
   -2.0404   -4.1741    6.1283 C   0  0  0  0  0  0
   -1.4933   -4.8530    4.8514 C   0  0  0  0  0  0
   -1.7842   -5.0790    7.4063 C   0  0  0  0  0  0
   -2.6306   -6.4346    7.5171 C   0  0  0  0  0  0
   -2.2108   -7.7082    8.3716 C   0  0  0  0  0  0
   -0.7393   -8.3505    7.9929 C   0  0  0  0  0  0
    0.0829   -8.4687    9.2752 C   0  0  0  0  0  0
   -0.7587   -9.7560    7.2385 C   0  0  0  0  0  0
    0.5642  -10.5113    6.6925 C   0  0  0  0  0  0
    1.6275  -11.1441    7.6543 C   0  0  0  0  0  0
    2.7900  -10.2070    8.2196 C   0  0  0  0  0  0
    3.9222  -10.6935    9.2076 C   0  0  0  0  0  0
    5.0112   -9.6920    9.6751 C   0  0  0  0  0  0
    5.8314   -8.9620    8.5422 C   0  0  0  0  0  0
    6.4343   -9.8595    7.4543 C   0  0  0  0  0  0
    7.7684  -10.5969    7.7623 C   0  0  0  0  0  0
    9.0368   -9.7961    8.1807 C   0  0  0  0  0  0
    9.5274   -8.7420    7.1980 C   0  0  0  0  0  0
    8.8754   -9.2238    9.5309 N   0  0  0  0  0  0
    7.4662  -11.4433    8.9008 O   0  0  0  0  0  0
    4.9673   -8.0071    7.9168 O   0  0  0  0  0  0
    0.0661  -11.6092    5.9095 O   0  0  0  0  0  0
   -3.9314   -6.0595    8.0457 O   0  0  0  0  0  0
   -4.7618   -5.3778    7.2145 C   0  0  0  0  0  0
   -4.6487   -5.2781    6.0076 O   0  0  0  0  0  0
   -5.9122   -4.8446    8.0231 C   0  0  0  0  0  0
   -6.9299   -5.9356    8.3926 C   0  0  0  0  0  0
   -7.4613   -6.6852    7.1641 C   0  0  0  0  0  0
   -8.5617   -7.6475    7.5466 C   0  0  0  0  0  0
   -8.5198   -8.3658    8.5395 O   0  0  0  0  0  0
   -9.5970   -7.6416    6.6939 O   0  0  0  0  0  0
   -6.1882   -6.9074    9.3207 C   0  0  0  0  0  0
   -5.6950   -7.9553    8.9323 O   0  0  0  0  0  0
   -6.1678   -6.5357   10.6081 O   0  0  0  0  0  0
   -0.3345   -5.3120    7.6156 O   0  0  0  0  0  0
    0.4465   -4.2553    8.0531 C   0  0  0  0  0  0
    0.0181   -3.2668    8.6343 O   0  0  0  0  0  0
    1.9330   -4.4545    7.7291 C   0  0  0  0  0  0
    2.7273   -3.1604    7.3702 C   0  0  0  0  0  0
    3.9687   -3.3000    6.4702 C   0  0  0  0  0  0
    4.8682   -2.0988    6.5212 C   0  0  0  0  0  0
    5.6783   -1.8510    7.4038 O   0  0  0  0  0  0
    4.7121   -1.2953    5.4580 O   0  0  0  0  0  0
    1.8719   -2.0276    6.7894 C   0  0  0  0  0  0
    1.5366   -1.9853    5.6222 O   0  0  0  0  0  0
    1.4196   -1.1254    7.6854 O   0  0  0  0  0  0
    9.5239   -8.4458    9.6436 H   0  0  0  0  0  0
    9.1755   -9.9186   10.2182 H   0  0  0  0  0  0
    7.4348  -10.8284    9.6639 H   0  0  0  0  0  0
    5.4886   -7.5093    7.2603 H   0  0  0  0  0  0
   -0.1587  -11.2712    5.0265 H   0  0  0  0  0  0
  -10.3080   -8.2791    6.8975 H   0  0  0  0  0  0
   -5.6190   -7.1146   11.1934 H   0  0  0  0  0  0
    5.3566   -0.5637    5.5613 H   0  0  0  0  0  0
    0.8040   -0.4489    7.3255 H   0  0  0  0  0  0
  1  2  1  0  0  0
  2  3  1  0  0  0
  3  4  1  0  0  0
  4  5  1  0  0  0
  5  6  1  0  0  0
  5  7  1  0  0  0
  7  8  1  0  0  0
  7 39  1  0  0  0
  8  9  1  0  0  0
  8 27  1  0  0  0
  9 10  1  0  0  0
 10 11  1  0  0  0
 10 12  1  0  0  0
 12 13  1  0  0  0
 13 14  1  0  0  0
 13 26  1  0  0  0
 14 15  1  0  0  0
 15 16  1  0  0  0
 16 17  1  0  0  0
 17 18  1  0  0  0
 18 19  1  0  0  0
 18 25  1  0  0  0
 19 20  1  0  0  0
 20 21  1  0  0  0
 20 24  1  0  0  0
 21 22  1  0  0  0
 21 23  1  0  0  0
 23 51  1  0  0  0
 23 52  1  0  0  0
 24 53  1  0  0  0
 25 54  1  0  0  0
 26 55  1  0  0  0
 27 28  1  0  0  0
 28 29  2  0  0  0
 28 30  1  0  0  0
 30 31  1  0  0  0
 31 32  1  0  0  0
 31 36  1  0  0  0
 32 33  1  0  0  0
 33 34  2  0  0  0
 33 35  1  0  0  0
 35 56  1  0  0  0
 36 37  2  0  0  0
 36 38  1  0  0  0
 38 57  1  0  0  0
 39 40  1  0  0  0
 40 41  2  0  0  0
 40 42  1  0  0  0
 42 43  1  0  0  0
 43 44  1  0  0  0
 43 48  1  0  0  0
 44 45  1  0  0  0
 45 46  2  0  0  0
 45 47  1  0  0  0
 47 58  1  0  0  0
 48 49  2  0  0  0
 48 50  1  0  0  0
 50 59  1  0  0  0
M  END
>  <AUTHOR>
    GENERATED BY OPEN BABEL 2.4.1

>  <CHROM.1>
173.11312307,-162.31623592,72.57848502,168.11649316,157.07961905,71.41161058
-57.16240262,71.53050952,127.30311977,175.85293801,69.61465175,-85.94829857
82.21694997,179.31591627,179.22413332,-55.62975116,-50.17270412,-80.84245017
175.95738823,-57.06948319,-58.24589287,-75.49783041,-158.94196319,15.69855042
-75.44506364,-55.22842993,-174.06027764,-98.21316559,-42.42784717,177.74505314
-174.51210475,21.58127763,144.95505975,-153.60864543,-163.00481812,-81.22130684
79.67351453,-177.98089643,-174.55310604,0.15513185,-6.26441105,7.48062786
-2.95612310,-0.01265960,2.88852095

>  <COMPND>
    UNNAMED

>  <MASTER>
        0    0    0    0    0    0    0    0  109    0  109    0

>  <Name>
FB1.pdb

>  <RI>
0

>  <Rbt.Current_Directory>
/home/fc/tossine/F10/p3/2_clust03

>  <Rbt.Executable>
rbdock/0.1.0

>  <Rbt.Library>
librxdock.so/0.1.0

>  <Rbt.Parameter_File>
/cluster/rxdock/data/scripts/dock.prm

>  <Rbt.Receptor>
rx_1.prm

>  <SCORE>
-1.75225

>  <SCORE.INTER>
0.330029

>  <SCORE.INTER.CONST>
1

>  <SCORE.INTER.POLAR>
-2.05788

>  <SCORE.INTER.REPUL>
0.129168

>  <SCORE.INTER.ROT>
32

>  <SCORE.INTER.VDW>
-30.719

>  <SCORE.INTER.norm>
0.00660058

>  <SCORE.INTRA>
-2.08228

>  <SCORE.INTRA.DIHEDRAL>
-3.15021

>  <SCORE.INTRA.DIHEDRAL.0>
47.3121

>  <SCORE.INTRA.POLAR>
1.29131

>  <SCORE.INTRA.POLAR.0>
-1.47808

>  <SCORE.INTRA.REPUL>
0

>  <SCORE.INTRA.REPUL.0>
0

>  <SCORE.INTRA.VDW>
-4.89762

>  <SCORE.INTRA.VDW.0>
-2.78316

>  <SCORE.INTRA.norm>
-0.0416456

>  <SCORE.RESTR>
0

>  <SCORE.RESTR.CAVITY>
0

>  <SCORE.RESTR.norm>
0

>  <SCORE.SYSTEM>
0

>  <SCORE.SYSTEM.CONST>
0

>  <SCORE.SYSTEM.DIHEDRAL>
0

>  <SCORE.SYSTEM.norm>
0

>  <SCORE.heavy>
50

>  <SCORE.norm>
-0.035045

$$$$
