FB1.pdb
  RxDock  10092023093D
librxdock.so/0.1.0
 59 58  0  0  0  0  0  0  0  0999 V2000
   -1.2597    3.4863    8.9849 C   0  0  0  0  0  0
   -1.4783    2.0456    9.4410 C   0  0  0  0  0  0
   -2.0048    1.1605    8.2992 C   0  0  0  0  0  0
   -0.9212    0.7880    7.2567 C   0  0  0  0  0  0
   -1.2347   -0.4912    6.4048 C   0  0  0  0  0  0
   -1.2258   -0.0937    4.9106 C   0  0  0  0  0  0
   -0.2367   -1.6942    6.6779 C   0  0  0  0  0  0
   -0.8867   -3.0911    7.1164 C   0  0  0  0  0  0
   -2.0566   -3.8392    6.3419 C   0  0  0  0  0  0
   -3.1079   -4.6743    7.3004 C   0  0  0  0  0  0
   -4.1858   -3.7102    7.7930 C   0  0  0  0  0  0
   -3.7956   -5.9540    6.6412 C   0  0  0  0  0  0
   -4.8363   -6.9236    7.4128 C   0  0  0  0  0  0
   -5.3993   -8.2357    6.7666 C   0  0  0  0  0  0
   -4.3632   -9.2755    6.1386 C   0  0  0  0  0  0
   -3.4520  -10.2457    6.9889 C   0  0  0  0  0  0
   -4.0990  -11.1487    8.0722 C   0  0  0  0  0  0
   -4.9833  -12.3484    7.5546 C   0  0  0  0  0  0
   -5.5310  -13.3002    8.6254 C   0  0  0  0  0  0
   -5.5537  -12.8137   10.1023 C   0  0  0  0  0  0
   -6.5690  -13.4158   11.1182 C   0  0  0  0  0  0
   -5.9829  -14.2541   12.2457 C   0  0  0  0  0  0
   -7.4640  -12.3701   11.6491 N   0  0  0  0  0  0
   -4.2469  -13.1641   10.6250 O   0  0  0  0  0  0
   -6.0870  -11.8011    6.8252 O   0  0  0  0  0  0
   -4.1345   -7.3565    8.5904 O   0  0  0  0  0  0
    0.2009   -4.0549    7.1430 O   0  0  0  0  0  0
    0.6162   -4.5494    5.9479 C   0  0  0  0  0  0
    0.2347   -4.1920    4.8497 O   0  0  0  0  0  0
    1.7092   -5.5507    6.2011 C   0  0  0  0  0  0
    1.3329   -6.5743    7.2842 C   0  0  0  0  0  0
    1.4832   -8.0231    6.8026 C   0  0  0  0  0  0
    0.3930   -8.3873    5.8217 C   0  0  0  0  0  0
   -0.5455   -7.6481    5.5454 O   0  0  0  0  0  0
    0.5493   -9.6026    5.2761 O   0  0  0  0  0  0
    2.2819   -6.3110    8.4614 C   0  0  0  0  0  0
    1.8904   -6.0922    9.5977 O   0  0  0  0  0  0
    3.5806   -6.2913    8.1312 O   0  0  0  0  0  0
    0.7246   -1.8567    5.5602 O   0  0  0  0  0  0
    1.6358   -0.8414    5.3217 C   0  0  0  0  0  0
    1.7239    0.1848    5.9832 O   0  0  0  0  0  0
    2.5420   -1.1406    4.1202 C   0  0  0  0  0  0
    3.8114   -1.9952    4.4253 C   0  0  0  0  0  0
    3.7242   -3.0440    5.5491 C   0  0  0  0  0  0
    4.0563   -2.4832    6.9018 C   0  0  0  0  0  0
    5.0879   -2.6895    7.5261 O   0  0  0  0  0  0
    3.0880   -1.6862    7.3787 O   0  0  0  0  0  0
    4.4204   -2.6916    3.2021 C   0  0  0  0  0  0
    5.5002   -2.3844    2.7370 O   0  0  0  0  0  0
    3.7260   -3.7490    2.7320 O   0  0  0  0  0  0
   -7.2004  -11.4704   11.2496 H   0  0  0  0  0  0
   -7.2937  -12.2728   12.6526 H   0  0  0  0  0  0
   -3.6211  -12.6013   10.1221 H   0  0  0  0  0  0
   -5.7675  -11.5373    5.9427 H   0  0  0  0  0  0
   -3.3092   -7.7851    8.3081 H   0  0  0  0  0  0
    1.3837  -10.0566    5.5023 H   0  0  0  0  0  0
    3.7624   -6.4540    7.1724 H   0  0  0  0  0  0
    3.4702   -1.2057    8.1431 H   0  0  0  0  0  0
    4.2066   -4.3130    2.0860 H   0  0  0  0  0  0
  1  2  1  0  0  0
  2  3  1  0  0  0
  3  4  1  0  0  0
  4  5  1  0  0  0
  5  6  1  0  0  0
  5  7  1  0  0  0
  7  8  1  0  0  0
  7 39  1  0  0  0
  8  9  1  0  0  0
  8 27  1  0  0  0
  9 10  1  0  0  0
 10 11  1  0  0  0
 10 12  1  0  0  0
 12 13  1  0  0  0
 13 14  1  0  0  0
 13 26  1  0  0  0
 14 15  1  0  0  0
 15 16  1  0  0  0
 16 17  1  0  0  0
 17 18  1  0  0  0
 18 19  1  0  0  0
 18 25  1  0  0  0
 19 20  1  0  0  0
 20 21  1  0  0  0
 20 24  1  0  0  0
 21 22  1  0  0  0
 21 23  1  0  0  0
 23 51  1  0  0  0
 23 52  1  0  0  0
 24 53  1  0  0  0
 25 54  1  0  0  0
 26 55  1  0  0  0
 27 28  1  0  0  0
 28 29  2  0  0  0
 28 30  1  0  0  0
 30 31  1  0  0  0
 31 32  1  0  0  0
 31 36  1  0  0  0
 32 33  1  0  0  0
 33 34  2  0  0  0
 33 35  1  0  0  0
 35 56  1  0  0  0
 36 37  2  0  0  0
 36 38  1  0  0  0
 38 57  1  0  0  0
 39 40  1  0  0  0
 40 41  2  0  0  0
 40 42  1  0  0  0
 42 43  1  0  0  0
 43 44  1  0  0  0
 43 48  1  0  0  0
 44 45  1  0  0  0
 45 46  2  0  0  0
 45 47  1  0  0  0
 47 58  1  0  0  0
 48 49  2  0  0  0
 48 50  1  0  0  0
 50 59  1  0  0  0
M  END
>  <AUTHOR>
    GENERATED BY OPEN BABEL 2.4.1

>  <CHROM.1>
74.90493078,158.37603800,122.30782818,124.48650697,51.82197098,65.24983754
-146.14594080,-78.24148242,85.35972605,178.97887437,-174.91159126,50.87578981
-57.03838214,75.52749860,51.94081054,71.01026613,175.44814338,17.87176521
77.94886493,154.98902016,112.83381248,66.01571765,-1.61433609,5.83767236
49.05996378,125.88729068,-72.52227088,125.22634628,-5.72536533,-6.17595780
-0.32376514,1.16625555,-85.51664383,31.77069500,-87.74554483,111.81046244
-106.45510187,-166.84082198,-166.90848459,-0.81609443,-5.52534368,7.05829140
0.93366457,0.42575666,0.00045630

>  <COMPND>
    UNNAMED

>  <MASTER>
        0    0    0    0    0    0    0    0  109    0  109    0

>  <Name>
FB1.pdb

>  <RI>
0

>  <Rbt.Current_Directory>
/home/fc/tossine/F10/p3/2_clust03

>  <Rbt.Executable>
rbdock/0.1.0

>  <Rbt.Library>
librxdock.so/0.1.0

>  <Rbt.Parameter_File>
/cluster/rxdock/data/scripts/dock.prm

>  <Rbt.Receptor>
rx_0.prm

>  <SCORE>
12.3672

>  <SCORE.INTER>
-4.03383

>  <SCORE.INTER.CONST>
1

>  <SCORE.INTER.POLAR>
-4.6433

>  <SCORE.INTER.REPUL>
0.738182

>  <SCORE.INTER.ROT>
32

>  <SCORE.INTER.VDW>
-29.3375

>  <SCORE.INTER.norm>
-0.0806765

>  <SCORE.INTRA>
16.3684

>  <SCORE.INTRA.DIHEDRAL>
13.8234

>  <SCORE.INTRA.DIHEDRAL.0>
47.3121

>  <SCORE.INTRA.POLAR>
1.47808

>  <SCORE.INTRA.POLAR.0>
-1.47808

>  <SCORE.INTRA.REPUL>
0

>  <SCORE.INTRA.REPUL.0>
0

>  <SCORE.INTRA.VDW>
4.43129

>  <SCORE.INTRA.VDW.0>
-2.78316

>  <SCORE.INTRA.norm>
0.327369

>  <SCORE.RESTR>
0.0325788

>  <SCORE.RESTR.CAVITY>
0.0325788

>  <SCORE.RESTR.norm>
0.000651577

>  <SCORE.SYSTEM>
0

>  <SCORE.SYSTEM.CONST>
0

>  <SCORE.SYSTEM.DIHEDRAL>
0

>  <SCORE.SYSTEM.norm>
0

>  <SCORE.heavy>
50

>  <SCORE.norm>
0.247344

$$$$
