FB1.pdb
  RxDock  10102001013D
librxdock.so/0.1.0
 59 58  0  0  0  0  0  0  0  0999 V2000
   -7.6915   -7.9713    9.1340 C   0  0  0  0  0  0
   -6.2020   -8.0193    9.4661 C   0  0  0  0  0  0
   -5.5971   -6.6099    9.5745 C   0  0  0  0  0  0
   -5.5005   -5.8731    8.2153 C   0  0  0  0  0  0
   -4.4231   -6.4438    7.2285 C   0  0  0  0  0  0
   -4.6738   -5.8337    5.8301 C   0  0  0  0  0  0
   -2.9308   -6.1846    7.7014 C   0  0  0  0  0  0
   -1.7694   -6.9074    6.8677 C   0  0  0  0  0  0
   -0.3769   -7.3882    7.4660 C   0  0  0  0  0  0
    0.9563   -6.7334    6.7483 C   0  0  0  0  0  0
    0.9336   -7.0926    5.2635 C   0  0  0  0  0  0
    1.1419   -5.1577    6.9146 C   0  0  0  0  0  0
    2.5601   -4.4373    7.2120 C   0  0  0  0  0  0
    2.6952   -2.8849    7.3786 C   0  0  0  0  0  0
    2.2375   -1.9505    6.1675 C   0  0  0  0  0  0
    2.7340   -0.4666    5.9531 C   0  0  0  0  0  0
    2.6835    0.1591    4.5342 C   0  0  0  0  0  0
    3.9423    0.9993    4.0884 C   0  0  0  0  0  0
    4.3310    0.9069    2.6075 C   0  0  0  0  0  0
    4.2942   -0.4881    1.9212 C   0  0  0  0  0  0
    5.0084   -1.7094    2.5721 C   0  0  0  0  0  0
    6.5033   -1.8366    2.3140 C   0  0  0  0  0  0
    4.7146   -1.7819    4.0160 N   0  0  0  0  0  0
    2.8890   -0.8465    1.8923 O   0  0  0  0  0  0
    3.6927    2.3723    4.4082 O   0  0  0  0  0  0
    2.9992   -4.9887    8.4649 O   0  0  0  0  0  0
   -2.3586   -8.1146    6.3127 O   0  0  0  0  0  0
   -2.1723   -9.2673    7.0068 C   0  0  0  0  0  0
   -1.1276   -9.8805    7.1160 O   0  0  0  0  0  0
   -3.4564   -9.6126    7.7093 C   0  0  0  0  0  0
   -4.3894  -10.4745    6.8438 C   0  0  0  0  0  0
   -5.3771  -11.2965    7.6818 C   0  0  0  0  0  0
   -4.6598  -12.3549    8.4871 C   0  0  0  0  0  0
   -4.7971  -12.4953    9.6975 O   0  0  0  0  0  0
   -3.8544  -13.1333    7.7493 O   0  0  0  0  0  0
   -5.1534   -9.4947    5.9426 C   0  0  0  0  0  0
   -4.9466   -9.3921    4.7429 O   0  0  0  0  0  0
   -6.0363   -8.7216    6.5897 O   0  0  0  0  0  0
   -2.6683   -4.7353    7.8755 O   0  0  0  0  0  0
   -1.5392   -4.3497    8.5788 C   0  0  0  0  0  0
   -0.7339   -5.1228    9.0809 O   0  0  0  0  0  0
   -1.3978   -2.8243    8.6653 C   0  0  0  0  0  0
   -1.9375   -2.0235    7.4397 C   0  0  0  0  0  0
   -3.4405   -2.1176    7.1192 C   0  0  0  0  0  0
   -4.3110   -1.6234    8.2383 C   0  0  0  0  0  0
   -3.9359   -1.3669    9.3741 O   0  0  0  0  0  0
   -5.5889   -1.4630    7.8620 O   0  0  0  0  0  0
   -1.5661   -0.5354    7.4368 C   0  0  0  0  0  0
   -1.7552    0.1942    8.3900 O   0  0  0  0  0  0
   -0.9119   -0.1037    6.3381 O   0  0  0  0  0  0
    5.4085   -1.2370    4.5259 H   0  0  0  0  0  0
    4.8535   -2.7451    4.3296 H   0  0  0  0  0  0
    2.8544   -1.6657    1.3546 H   0  0  0  0  0  0
    2.8262    2.6188    4.0353 H   0  0  0  0  0  0
    3.0194   -5.9564    8.3769 H   0  0  0  0  0  0
   -3.8110  -12.9068    6.8005 H   0  0  0  0  0  0
   -6.4807   -8.0437    6.0226 H   0  0  0  0  0  0
   -5.6855   -1.9121    6.9958 H   0  0  0  0  0  0
   -0.8522   -0.7534    5.6029 H   0  0  0  0  0  0
  1  2  1  0  0  0
  2  3  1  0  0  0
  3  4  1  0  0  0
  4  5  1  0  0  0
  5  6  1  0  0  0
  5  7  1  0  0  0
  7  8  1  0  0  0
  7 39  1  0  0  0
  8  9  1  0  0  0
  8 27  1  0  0  0
  9 10  1  0  0  0
 10 11  1  0  0  0
 10 12  1  0  0  0
 12 13  1  0  0  0
 13 14  1  0  0  0
 13 26  1  0  0  0
 14 15  1  0  0  0
 15 16  1  0  0  0
 16 17  1  0  0  0
 17 18  1  0  0  0
 18 19  1  0  0  0
 18 25  1  0  0  0
 19 20  1  0  0  0
 20 21  1  0  0  0
 20 24  1  0  0  0
 21 22  1  0  0  0
 21 23  1  0  0  0
 23 51  1  0  0  0
 23 52  1  0  0  0
 24 53  1  0  0  0
 25 54  1  0  0  0
 26 55  1  0  0  0
 27 28  1  0  0  0
 28 29  2  0  0  0
 28 30  1  0  0  0
 30 31  1  0  0  0
 31 32  1  0  0  0
 31 36  1  0  0  0
 32 33  1  0  0  0
 33 34  2  0  0  0
 33 35  1  0  0  0
 35 56  1  0  0  0
 36 37  2  0  0  0
 36 38  1  0  0  0
 38 57  1  0  0  0
 39 40  1  0  0  0
 40 41  2  0  0  0
 40 42  1  0  0  0
 42 43  1  0  0  0
 43 44  1  0  0  0
 43 48  1  0  0  0
 44 45  1  0  0  0
 45 46  2  0  0  0
 45 47  1  0  0  0
 47 58  1  0  0  0
 48 49  2  0  0  0
 48 50  1  0  0  0
 50 59  1  0  0  0
M  END
>  <AUTHOR>
    GENERATED BY OPEN BABEL 2.4.1

>  <CHROM.1>
-69.91158870,-70.62951773,166.98014674,171.65126791,-149.11422210,164.86645133
-121.70517207,-95.99485328,-59.00539385,138.64339078,-179.54677215,-58.85078131
55.44948517,-158.36070454,156.90988545,-136.99548461,144.43201372,-42.50358093
-51.50213446,-50.63940671,-82.57888561,172.65217072,-89.04971372,-71.13170680
88.90861311,156.28092328,-67.18915375,108.30485068,127.50731258,1.70464387
175.66254881,-0.42541579,-32.43371694,62.56246749,60.55532839,-51.04811579
-11.28234996,13.17768692,8.17860113,-1.25482074,-4.93173693,6.71178979,2.36564051
-0.45768556,-3.08316313

>  <COMPND>
    UNNAMED

>  <MASTER>
        0    0    0    0    0    0    0    0  109    0  109    0

>  <Name>
FB1.pdb

>  <RI>
0

>  <Rbt.Current_Directory>
/home/fc/tossine/F10/p3/2_clust03

>  <Rbt.Executable>
rbdock/0.1.0

>  <Rbt.Library>
librxdock.so/0.1.0

>  <Rbt.Parameter_File>
/cluster/rxdock/data/scripts/dock.prm

>  <Rbt.Receptor>
rx_2.prm

>  <SCORE>
10.2309

>  <SCORE.INTER>
-9.4945

>  <SCORE.INTER.CONST>
1

>  <SCORE.INTER.POLAR>
-3.67934

>  <SCORE.INTER.REPUL>
0.300871

>  <SCORE.INTER.ROT>
32

>  <SCORE.INTER.VDW>
-35.8891

>  <SCORE.INTER.norm>
-0.18989

>  <SCORE.INTRA>
19.725

>  <SCORE.INTRA.DIHEDRAL>
27.9966

>  <SCORE.INTRA.DIHEDRAL.0>
47.3121

>  <SCORE.INTRA.POLAR>
1.47808

>  <SCORE.INTRA.POLAR.0>
-1.47808

>  <SCORE.INTRA.REPUL>
0

>  <SCORE.INTRA.REPUL.0>
0

>  <SCORE.INTRA.VDW>
0.701243

>  <SCORE.INTRA.VDW.0>
-2.78316

>  <SCORE.INTRA.norm>
0.3945

>  <SCORE.RESTR>
0.000384203

>  <SCORE.RESTR.CAVITY>
0.000384203

>  <SCORE.RESTR.norm>
7.68406e-06

>  <SCORE.SYSTEM>
0

>  <SCORE.SYSTEM.CONST>
0

>  <SCORE.SYSTEM.DIHEDRAL>
0

>  <SCORE.SYSTEM.norm>
0

>  <SCORE.heavy>
50

>  <SCORE.norm>
0.204618

$$$$
