FB1.pdb
  RxDock  10092023103D
librxdock.so/0.1.0
 59 58  0  0  0  0  0  0  0  0999 V2000
   -5.2476   -1.4103   10.5978 C   0  0  0  0  0  0
   -3.7508   -1.5590   10.3354 C   0  0  0  0  0  0
   -3.3444   -0.9385    8.9885 C   0  0  0  0  0  0
   -1.8732   -1.2238    8.5960 C   0  0  0  0  0  0
   -1.4176   -0.5926    7.2343 C   0  0  0  0  0  0
   -1.0383    0.8849    7.4868 C   0  0  0  0  0  0
   -0.2230   -1.3747    6.5420 C   0  0  0  0  0  0
   -0.1985   -2.9666    6.7195 C   0  0  0  0  0  0
    0.1213   -3.7312    8.0765 C   0  0  0  0  0  0
    1.5318   -4.5867    8.0816 C   0  0  0  0  0  0
    2.6969   -3.6015    8.0028 C   0  0  0  0  0  0
    1.7499   -5.5755    9.3143 C   0  0  0  0  0  0
    3.0459   -6.5273    9.4960 C   0  0  0  0  0  0
    3.2722   -7.4031   10.7759 C   0  0  0  0  0  0
    4.7719   -7.6810   11.2478 C   0  0  0  0  0  0
    5.7453   -8.7130   10.5534 C   0  0  0  0  0  0
    5.4992  -10.2346   10.7307 C   0  0  0  0  0  0
    6.5230  -11.0131   11.6445 C   0  0  0  0  0  0
    6.7522  -10.4404   13.0487 C   0  0  0  0  0  0
    5.5489   -9.7829   13.7823 C   0  0  0  0  0  0
    4.7461  -10.5770   14.8549 C   0  0  0  0  0  0
    3.3754  -11.0883   14.4341 C   0  0  0  0  0  0
    5.5633  -11.6657   15.4235 N   0  0  0  0  0  0
    6.1239   -8.6604   14.4986 O   0  0  0  0  0  0
    6.0625  -12.3626   11.7733 O   0  0  0  0  0  0
    2.9715   -7.4645    8.4085 O   0  0  0  0  0  0
   -1.5213   -3.4377    6.3442 O   0  0  0  0  0  0
   -1.6916   -4.7816    6.2422 C   0  0  0  0  0  0
   -0.8104   -5.6112    6.1208 O   0  0  0  0  0  0
   -3.1542   -5.0899    6.4069 C   0  0  0  0  0  0
   -3.4139   -6.5735    6.7135 C   0  0  0  0  0  0
   -3.4430   -6.8672    8.2189 C   0  0  0  0  0  0
   -4.0402   -8.2270    8.4976 C   0  0  0  0  0  0
   -5.1515   -8.3920    8.9889 O   0  0  0  0  0  0
   -3.2366   -9.2442    8.1534 O   0  0  0  0  0  0
   -4.7766   -6.9013    6.0879 C   0  0  0  0  0  0
   -5.6329   -6.0565    5.8741 O   0  0  0  0  0  0
   -4.9720   -8.2035    5.8389 O   0  0  0  0  0  0
   -0.0713   -0.9729    5.1224 O   0  0  0  0  0  0
    0.9107   -1.5887    4.3644 C   0  0  0  0  0  0
    1.5734   -2.5500    4.7318 O   0  0  0  0  0  0
    1.0860   -0.9301    2.9897 C   0  0  0  0  0  0
    2.4311   -0.1708    2.7690 C   0  0  0  0  0  0
    3.5758   -0.9181    2.0607 C   0  0  0  0  0  0
    4.9173   -0.6635    2.6852 C   0  0  0  0  0  0
    5.6856    0.2390    2.3824 O   0  0  0  0  0  0
    5.2042   -1.5399    3.6599 O   0  0  0  0  0  0
    2.2881    1.1935    2.0829 C   0  0  0  0  0  0
    2.7542    2.2166    2.5441 O   0  0  0  0  0  0
    1.6984    1.1726    0.8692 O   0  0  0  0  0  0
    5.0330  -12.1331   16.1575 H   0  0  0  0  0  0
    6.3684  -11.2546   15.9012 H   0  0  0  0  0  0
    6.4911   -8.0821   13.7971 H   0  0  0  0  0  0
    5.2113  -12.3495   12.2485 H   0  0  0  0  0  0
    3.7931   -7.9836    8.4022 H   0  0  0  0  0  0
   -3.6214  -10.1348    8.2639 H   0  0  0  0  0  0
   -5.8471   -8.4158    5.4291 H   0  0  0  0  0  0
    6.0272   -1.2238    4.0890 H   0  0  0  0  0  0
    1.3299    0.3031    0.5965 H   0  0  0  0  0  0
  1  2  1  0  0  0
  2  3  1  0  0  0
  3  4  1  0  0  0
  4  5  1  0  0  0
  5  6  1  0  0  0
  5  7  1  0  0  0
  7  8  1  0  0  0
  7 39  1  0  0  0
  8  9  1  0  0  0
  8 27  1  0  0  0
  9 10  1  0  0  0
 10 11  1  0  0  0
 10 12  1  0  0  0
 12 13  1  0  0  0
 13 14  1  0  0  0
 13 26  1  0  0  0
 14 15  1  0  0  0
 15 16  1  0  0  0
 16 17  1  0  0  0
 17 18  1  0  0  0
 18 19  1  0  0  0
 18 25  1  0  0  0
 19 20  1  0  0  0
 20 21  1  0  0  0
 20 24  1  0  0  0
 21 22  1  0  0  0
 21 23  1  0  0  0
 23 51  1  0  0  0
 23 52  1  0  0  0
 24 53  1  0  0  0
 25 54  1  0  0  0
 26 55  1  0  0  0
 27 28  1  0  0  0
 28 29  2  0  0  0
 28 30  1  0  0  0
 30 31  1  0  0  0
 31 32  1  0  0  0
 31 36  1  0  0  0
 32 33  1  0  0  0
 33 34  2  0  0  0
 33 35  1  0  0  0
 35 56  1  0  0  0
 36 37  2  0  0  0
 36 38  1  0  0  0
 38 57  1  0  0  0
 39 40  1  0  0  0
 40 41  2  0  0  0
 40 42  1  0  0  0
 42 43  1  0  0  0
 43 44  1  0  0  0
 43 48  1  0  0  0
 44 45  1  0  0  0
 45 46  2  0  0  0
 45 47  1  0  0  0
 47 58  1  0  0  0
 48 49  2  0  0  0
 48 50  1  0  0  0
 50 59  1  0  0  0
M  END
>  <AUTHOR>
    GENERATED BY OPEN BABEL 2.4.1

>  <CHROM.1>
-172.60388673,-179.35203660,82.19954610,34.65807728,-70.40294406,-178.50502473
-112.60684839,171.43162308,67.01557463,178.65360444,175.23280582,-148.49055585
172.42786852,-76.34444496,-72.04652564,-108.52690854,52.93122542,34.88051900
-64.63194132,99.27187971,-104.89091131,61.84855638,176.80750394,-18.56519699
-163.44205551,91.19901604,165.47291600,-24.33923375,-107.73378443,-175.89411515
-179.54369418,8.51250483,111.63416482,96.12205938,-138.68595422,127.12242830
-89.60699078,-172.18006864,6.72289980,1.00046766,-4.92497305,7.81503178,1.89312438
-0.03649514,-0.71856103

>  <COMPND>
    UNNAMED

>  <MASTER>
        0    0    0    0    0    0    0    0  109    0  109    0

>  <Name>
FB1.pdb

>  <RI>
0

>  <Rbt.Current_Directory>
/home/fc/tossine/F10/p3/2_clust03

>  <Rbt.Executable>
rbdock/0.1.0

>  <Rbt.Library>
librxdock.so/0.1.0

>  <Rbt.Parameter_File>
/cluster/rxdock/data/scripts/dock.prm

>  <Rbt.Receptor>
rx_0.prm

>  <SCORE>
23.8455

>  <SCORE.INTER>
14.2814

>  <SCORE.INTER.CONST>
1

>  <SCORE.INTER.POLAR>
-3.04575

>  <SCORE.INTER.REPUL>
0.329703

>  <SCORE.INTER.ROT>
32

>  <SCORE.INTER.VDW>
-14.4115

>  <SCORE.INTER.norm>
0.285629

>  <SCORE.INTRA>
8.92728

>  <SCORE.INTRA.DIHEDRAL>
12.1714

>  <SCORE.INTRA.DIHEDRAL.0>
47.3121

>  <SCORE.INTRA.POLAR>
1.47808

>  <SCORE.INTRA.POLAR.0>
-1.47808

>  <SCORE.INTRA.REPUL>
0

>  <SCORE.INTRA.REPUL.0>
0

>  <SCORE.INTRA.VDW>
-2.18391

>  <SCORE.INTRA.VDW.0>
-2.78316

>  <SCORE.INTRA.norm>
0.178546

>  <SCORE.RESTR>
0.636764

>  <SCORE.RESTR.CAVITY>
0.636764

>  <SCORE.RESTR.norm>
0.0127353

>  <SCORE.SYSTEM>
0

>  <SCORE.SYSTEM.CONST>
0

>  <SCORE.SYSTEM.DIHEDRAL>
0

>  <SCORE.SYSTEM.norm>
0

>  <SCORE.heavy>
50

>  <SCORE.norm>
0.47691

$$$$
