AFB1t.pdb
  RxDock  09122016513D
librxdock.so/0.1.0
 23 27  0  0  0  0  0  0  0  0999 V2000
    7.0279  -14.0532   -1.1779 O   0  0  0  0  0  0
    8.0385  -13.4037   -1.3715 C   0  0  0  0  0  0
    8.3107  -12.0709   -0.8335 C   0  0  0  0  0  0
    7.3808  -11.0774   -0.3188 C   0  0  0  0  0  0
    6.1608  -11.1912   -0.3714 O   0  0  0  0  0  0
    7.9878   -9.9365    0.2030 O   0  0  0  0  0  0
    9.3890   -9.7556    0.1949 C   0  0  0  0  0  0
    9.8810   -8.6293    0.8268 C   0  0  0  0  0  0
   11.2447   -8.4234    0.8714 C   0  0  0  0  0  0
   11.6223   -7.3126    1.5782 O   0  0  0  0  0  0
   10.4119   -6.8871    2.2566 C   0  0  0  0  0  0
   10.2157   -5.4601    2.1350 O   0  0  0  0  0  0
    9.1234   -5.3371    1.3018 C   0  0  0  0  0  0
    8.5235   -6.4695    0.9367 C   0  0  0  0  0  0
    9.1867   -7.5988    1.6322 C   0  0  0  0  0  0
   12.1465   -9.3024    0.2984 C   0  0  0  0  0  0
   11.6609  -10.4720   -0.3053 C   0  0  0  0  0  0
   12.4771  -11.4451   -0.8218 O   0  0  0  0  0  0
   13.3899  -11.0805   -1.8510 C   0  0  0  0  0  0
   10.2618  -10.7048   -0.3745 C   0  0  0  0  0  0
    9.6397  -11.9130   -0.9233 C   0  0  0  0  0  0
   10.3364  -13.0745   -1.5566 C   0  0  0  0  0  0
    9.2014  -13.8641   -2.1978 C   0  0  0  0  0  0
  1  2  2  0  0  0
  2  3  1  0  0  0
  2 23  1  0  0  0
  3  4  1  0  0  0
  3 21  2  0  0  0
  4  5  2  0  0  0
  4  6  1  0  0  0
  6  7  1  0  0  0
  7  8  1  0  0  0
  7 20  2  0  0  0
  8  9  2  0  0  0
  8 15  1  0  0  0
  9 10  1  0  0  0
  9 16  1  0  0  0
 10 11  1  0  0  0
 11 12  1  0  0  0
 11 15  1  0  0  0
 12 13  1  0  0  0
 13 14  2  0  0  0
 14 15  1  0  0  0
 16 17  2  0  0  0
 17 18  1  0  0  0
 17 20  1  0  0  0
 18 19  1  0  0  0
 20 21  1  0  0  0
 21 22  1  0  0  0
 22 23  1  0  0  0
M  END
>  <AUTHOR>
    GENERATED BY OPEN BABEL 3.1.0

>  <CHROM.1>
-58.70066075,9.72484523,-9.98041540,0.00336968,1.77879059,-0.09728232,-2.69230626

>  <COMPND>
    UNNAMED

>  <MASTER>
        0    0    0    0    0    0    0    0   35    0   35    0

>  <Name>
AFB1t.pdb

>  <RI>
0

>  <Rbt.Current_Directory>
/home/fc/tossine/AF_1/p3/0_clust09

>  <Rbt.Executable>
rbdock/0.1.0

>  <Rbt.Library>
librxdock.so/0.1.0

>  <Rbt.Parameter_File>
/cluster/rxdock/data/scripts/dock.prm

>  <Rbt.Receptor>
rx_1.prm

>  <SCORE>
-6.43643

>  <SCORE.INTER>
-6.20423

>  <SCORE.INTER.CONST>
1

>  <SCORE.INTER.POLAR>
0

>  <SCORE.INTER.REPUL>
0.136848

>  <SCORE.INTER.ROT>
1

>  <SCORE.INTER.VDW>
-13.2885

>  <SCORE.INTER.norm>
-0.269749

>  <SCORE.INTRA>
-0.2322

>  <SCORE.INTRA.DIHEDRAL>
3.35336

>  <SCORE.INTRA.DIHEDRAL.0>
0.0968638

>  <SCORE.INTRA.POLAR>
0

>  <SCORE.INTRA.POLAR.0>
0

>  <SCORE.INTRA.REPUL>
0

>  <SCORE.INTRA.REPUL.0>
0

>  <SCORE.INTRA.VDW>
-1.90888

>  <SCORE.INTRA.VDW.0>
2.11718

>  <SCORE.INTRA.norm>
-0.0100956

>  <SCORE.RESTR>
0

>  <SCORE.RESTR.CAVITY>
0

>  <SCORE.RESTR.norm>
0

>  <SCORE.SYSTEM>
0

>  <SCORE.SYSTEM.CONST>
0

>  <SCORE.SYSTEM.DIHEDRAL>
0

>  <SCORE.SYSTEM.norm>
0

>  <SCORE.heavy>
23

>  <SCORE.norm>
-0.279845

$$$$
