AFB1t.pdb
  RxDock  09122016523D
librxdock.so/0.1.0
 23 27  0  0  0  0  0  0  0  0999 V2000
   -5.7418    2.5119   -7.8948 O   0  0  0  0  0  0
   -4.8129    1.7594   -8.1214 C   0  0  0  0  0  0
   -3.5173    1.7767   -7.4422 C   0  0  0  0  0  0
   -2.8894    2.8470   -6.6827 C   0  0  0  0  0  0
   -3.3445    3.9827   -6.5976 O   0  0  0  0  0  0
   -1.6785    2.4971   -6.0878 O   0  0  0  0  0  0
   -1.1014    1.2173   -6.2459 C   0  0  0  0  0  0
    0.0516    0.9550   -5.5306 C   0  0  0  0  0  0
    0.6366   -0.2908   -5.6287 C   0  0  0  0  0  0
    1.7347   -0.4605   -4.8277 O   0  0  0  0  0  0
    1.7246    0.6960   -3.9509 C   0  0  0  0  0  0
    3.0392    1.2885   -3.8482 O   0  0  0  0  0  0
    2.9227    2.4913   -4.5131 C   0  0  0  0  0  0
    1.7067    2.8119   -4.9537 C   0  0  0  0  0  0
    0.7544    1.7655   -4.5098 C   0  0  0  0  0  0
    0.1154   -1.2941   -6.4261 C   0  0  0  0  0  0
   -1.0797   -1.0542   -7.1206 C   0  0  0  0  0  0
   -1.7209   -2.0107   -7.8649 O   0  0  0  0  0  0
   -0.9526   -3.0977   -8.3682 C   0  0  0  0  0  0
   -1.6982    0.2219   -7.0459 C   0  0  0  0  0  0
   -2.9749    0.5722   -7.6747 C   0  0  0  0  0  0
   -3.8186   -0.3034   -8.5449 C   0  0  0  0  0  0
   -4.8354    0.6619   -9.1423 C   0  0  0  0  0  0
  1  2  2  0  0  0
  2  3  1  0  0  0
  2 23  1  0  0  0
  3  4  1  0  0  0
  3 21  2  0  0  0
  4  5  2  0  0  0
  4  6  1  0  0  0
  6  7  1  0  0  0
  7  8  1  0  0  0
  7 20  2  0  0  0
  8  9  2  0  0  0
  8 15  1  0  0  0
  9 10  1  0  0  0
  9 16  1  0  0  0
 10 11  1  0  0  0
 11 12  1  0  0  0
 11 15  1  0  0  0
 12 13  1  0  0  0
 13 14  2  0  0  0
 14 15  1  0  0  0
 16 17  2  0  0  0
 17 18  1  0  0  0
 17 20  1  0  0  0
 18 19  1  0  0  0
 20 21  1  0  0  0
 21 22  1  0  0  0
 22 23  1  0  0  0
M  END
>  <AUTHOR>
    GENERATED BY OPEN BABEL 3.1.0

>  <CHROM.1>
-23.89451728,-1.19722117,0.84469753,-6.47969532,2.98977257,0.49260074,-2.77147449

>  <COMPND>
    UNNAMED

>  <MASTER>
        0    0    0    0    0    0    0    0   35    0   35    0

>  <Name>
AFB1t.pdb

>  <RI>
0

>  <Rbt.Current_Directory>
/home/fc/tossine/AF_1/p3/0_clust09

>  <Rbt.Executable>
rbdock/0.1.0

>  <Rbt.Library>
librxdock.so/0.1.0

>  <Rbt.Parameter_File>
/cluster/rxdock/data/scripts/dock.prm

>  <Rbt.Receptor>
rx_4.prm

>  <SCORE>
-9.33754

>  <SCORE.INTER>
-9.83207

>  <SCORE.INTER.CONST>
1

>  <SCORE.INTER.POLAR>
0

>  <SCORE.INTER.REPUL>
0.00274829

>  <SCORE.INTER.ROT>
1

>  <SCORE.INTER.VDW>
-16.2458

>  <SCORE.INTER.norm>
-0.427481

>  <SCORE.INTRA>
-0.180096

>  <SCORE.INTRA.DIHEDRAL>
0.646969

>  <SCORE.INTRA.DIHEDRAL.0>
0.0968638

>  <SCORE.INTRA.POLAR>
0

>  <SCORE.INTRA.POLAR.0>
0

>  <SCORE.INTRA.REPUL>
0

>  <SCORE.INTRA.REPUL.0>
0

>  <SCORE.INTRA.VDW>
-0.503581

>  <SCORE.INTRA.VDW.0>
2.11718

>  <SCORE.INTRA.norm>
-0.00783027

>  <SCORE.RESTR>
0.67463

>  <SCORE.RESTR.CAVITY>
0.67463

>  <SCORE.RESTR.norm>
0.0293317

>  <SCORE.SYSTEM>
0

>  <SCORE.SYSTEM.CONST>
0

>  <SCORE.SYSTEM.DIHEDRAL>
0

>  <SCORE.SYSTEM.norm>
0

>  <SCORE.heavy>
23

>  <SCORE.norm>
-0.40598

$$$$
