AFB1t.pdb
  RxDock  09122016513D
librxdock.so/0.1.0
 23 27  0  0  0  0  0  0  0  0999 V2000
    6.4075   -3.8736    1.4018 O   0  0  0  0  0  0
    7.5486   -4.2039    1.1387 C   0  0  0  0  0  0
    8.0499   -5.5776    1.0980 C   0  0  0  0  0  0
    7.4966   -6.7787    1.7046 C   0  0  0  0  0  0
    6.5360   -6.7791    2.4672 O   0  0  0  0  0  0
    8.1837   -7.9503    1.3924 O   0  0  0  0  0  0
    9.3410   -7.9540    0.5820 C   0  0  0  0  0  0
    9.8802   -9.1856    0.2618 C   0  0  0  0  0  0
   10.9934   -9.2427   -0.5515 C   0  0  0  0  0  0
   11.4018  -10.5141   -0.8563 O   0  0  0  0  0  0
   10.3175  -11.3621   -0.3963 C   0  0  0  0  0  0
   10.8176  -12.4995    0.3425 O   0  0  0  0  0  0
   10.4325  -12.2552    1.6443 C   0  0  0  0  0  0
    9.6782  -11.1758    1.8486 C   0  0  0  0  0  0
    9.3825  -10.5530    0.5358 C   0  0  0  0  0  0
   11.6009   -8.1075   -1.0580 C   0  0  0  0  0  0
   11.0351   -6.8549   -0.7772 C   0  0  0  0  0  0
   11.5102   -5.6812   -1.3032 O   0  0  0  0  0  0
   12.4905   -4.9615   -0.5642 C   0  0  0  0  0  0
    9.8954   -6.7655    0.0652 C   0  0  0  0  0  0
    9.1817   -5.5247    0.3802 C   0  0  0  0  0  0
    9.5435   -4.1427   -0.0613 C   0  0  0  0  0  0
    8.6536   -3.2507    0.7962 C   0  0  0  0  0  0
  1  2  2  0  0  0
  2  3  1  0  0  0
  2 23  1  0  0  0
  3  4  1  0  0  0
  3 21  2  0  0  0
  4  5  2  0  0  0
  4  6  1  0  0  0
  6  7  1  0  0  0
  7  8  1  0  0  0
  7 20  2  0  0  0
  8  9  2  0  0  0
  8 15  1  0  0  0
  9 10  1  0  0  0
  9 16  1  0  0  0
 10 11  1  0  0  0
 11 12  1  0  0  0
 11 15  1  0  0  0
 12 13  1  0  0  0
 13 14  2  0  0  0
 14 15  1  0  0  0
 16 17  2  0  0  0
 17 18  1  0  0  0
 17 20  1  0  0  0
 18 19  1  0  0  0
 20 21  1  0  0  0
 21 22  1  0  0  0
 22 23  1  0  0  0
M  END
>  <AUTHOR>
    GENERATED BY OPEN BABEL 3.1.0

>  <CHROM.1>
-91.47481842,9.58124776,-7.61076507,0.43971758,1.95598732,0.56411870,-0.13822650

>  <COMPND>
    UNNAMED

>  <MASTER>
        0    0    0    0    0    0    0    0   35    0   35    0

>  <Name>
AFB1t.pdb

>  <RI>
0

>  <Rbt.Current_Directory>
/home/fc/tossine/AF_1/p3/0_clust09

>  <Rbt.Executable>
rbdock/0.1.0

>  <Rbt.Library>
librxdock.so/0.1.0

>  <Rbt.Parameter_File>
/cluster/rxdock/data/scripts/dock.prm

>  <Rbt.Receptor>
rx_2.prm

>  <SCORE>
-3.94554

>  <SCORE.INTER>
-4.78939

>  <SCORE.INTER.CONST>
1

>  <SCORE.INTER.POLAR>
0

>  <SCORE.INTER.REPUL>
0.0236428

>  <SCORE.INTER.ROT>
1

>  <SCORE.INTER.VDW>
-11.3076

>  <SCORE.INTER.norm>
-0.208234

>  <SCORE.INTRA>
0.843847

>  <SCORE.INTRA.DIHEDRAL>
4.70155

>  <SCORE.INTRA.DIHEDRAL.0>
0.0968638

>  <SCORE.INTRA.POLAR>
0

>  <SCORE.INTRA.POLAR.0>
0

>  <SCORE.INTRA.REPUL>
0

>  <SCORE.INTRA.REPUL.0>
0

>  <SCORE.INTRA.VDW>
-1.50693

>  <SCORE.INTRA.VDW.0>
2.11718

>  <SCORE.INTRA.norm>
0.036689

>  <SCORE.RESTR>
0

>  <SCORE.RESTR.CAVITY>
0

>  <SCORE.RESTR.norm>
0

>  <SCORE.SYSTEM>
0

>  <SCORE.SYSTEM.CONST>
0

>  <SCORE.SYSTEM.DIHEDRAL>
0

>  <SCORE.SYSTEM.norm>
0

>  <SCORE.heavy>
23

>  <SCORE.norm>
-0.171545

$$$$
