FB1.pdb
  RxDock  10062015593D
librxdock.so/0.1.0
 59 58  0  0  0  0  0  0  0  0999 V2000
  -11.7372   -4.5472   15.8108 C   0  0  0  0  0  0
  -12.3518   -4.0089   14.5209 C   0  0  0  0  0  0
  -11.2935   -3.8198   13.4215 C   0  0  0  0  0  0
  -11.7176   -4.4010   12.0496 C   0  0  0  0  0  0
  -11.0879   -3.6845   10.8044 C   0  0  0  0  0  0
   -9.9005   -4.5380   10.3022 C   0  0  0  0  0  0
  -12.1273   -3.4149    9.6362 C   0  0  0  0  0  0
  -12.6568   -4.6920    8.8270 C   0  0  0  0  0  0
  -13.5924   -5.8305    9.4245 C   0  0  0  0  0  0
  -12.9936   -7.3628    9.3038 C   0  0  0  0  0  0
  -11.4856   -7.3147    9.5441 C   0  0  0  0  0  0
  -13.6536   -8.4532   10.2632 C   0  0  0  0  0  0
  -15.1753   -8.3801   10.8086 C   0  0  0  0  0  0
  -15.7793   -7.0799   11.4417 C   0  0  0  0  0  0
  -14.8893   -6.2613   12.4844 C   0  0  0  0  0  0
  -14.0096   -6.9253   13.6156 C   0  0  0  0  0  0
  -12.7186   -7.6938   13.2281 C   0  0  0  0  0  0
  -11.3900   -7.2536   13.9564 C   0  0  0  0  0  0
  -10.6939   -8.3245   14.8056 C   0  0  0  0  0  0
  -11.5314   -9.0710   15.8825 C   0  0  0  0  0  0
  -12.0687  -10.5074   15.6116 C   0  0  0  0  0  0
  -12.8651  -10.7022   14.3290 C   0  0  0  0  0  0
  -10.9844  -11.5023   15.7153 N   0  0  0  0  0  0
  -10.6339   -9.2128   17.0130 O   0  0  0  0  0  0
  -10.4706   -6.7955   12.9591 O   0  0  0  0  0  0
  -15.9936   -8.6524    9.6585 O   0  0  0  0  0  0
  -13.4014   -4.1736    7.6916 O   0  0  0  0  0  0
  -13.7489   -5.0618    6.7243 C   0  0  0  0  0  0
  -13.8637   -6.2650    6.8601 O   0  0  0  0  0  0
  -14.0705   -4.2976    5.4697 C   0  0  0  0  0  0
  -13.6049   -2.8342    5.5341 C   0  0  0  0  0  0
  -12.1447   -2.6613    5.0967 C   0  0  0  0  0  0
  -11.6421   -1.2716    5.4121 C   0  0  0  0  0  0
  -10.9979   -0.9954    6.4183 O   0  0  0  0  0  0
  -11.9670   -0.3620    4.4816 O   0  0  0  0  0  0
  -14.5316   -2.0548    4.5907 C   0  0  0  0  0  0
  -14.2161   -1.7446    3.4520 O   0  0  0  0  0  0
  -15.7021   -1.6970    5.1364 O   0  0  0  0  0  0
  -13.2407   -2.5511   10.0988 O   0  0  0  0  0  0
  -12.9327   -1.3225   10.6589 C   0  0  0  0  0  0
  -13.5943   -0.7670   11.5261 O   0  0  0  0  0  0
  -11.6516   -0.7171   10.0702 C   0  0  0  0  0  0
  -10.5444   -0.3392   11.1026 C   0  0  0  0  0  0
   -9.1119   -0.8403   10.8429 C   0  0  0  0  0  0
   -8.7439   -0.8360    9.3872 C   0  0  0  0  0  0
   -7.9881   -0.0416    8.8446 O   0  0  0  0  0  0
   -9.3276   -1.8347    8.7074 O   0  0  0  0  0  0
  -10.4502    1.1590   11.4169 C   0  0  0  0  0  0
  -11.2097    1.9817   10.9446 O   0  0  0  0  0  0
   -9.5296    1.4999   12.3429 O   0  0  0  0  0  0
  -10.1219  -11.0950   15.3564 H   0  0  0  0  0  0
  -11.1920  -12.2788   15.0833 H   0  0  0  0  0  0
  -11.1575   -9.6994   17.6842 H   0  0  0  0  0  0
   -9.6537   -6.5088   13.4073 H   0  0  0  0  0  0
  -16.8588   -8.2325    9.7988 H   0  0  0  0  0  0
  -12.2878   -0.7282    3.6351 H   0  0  0  0  0  0
  -15.9743   -2.2412    5.9165 H   0  0  0  0  0  0
   -9.4040   -1.5347    7.7771 H   0  0  0  0  0  0
   -9.5011    2.4548   12.5746 H   0  0  0  0  0  0
  1  2  1  0  0  0
  2  3  1  0  0  0
  3  4  1  0  0  0
  4  5  1  0  0  0
  5  6  1  0  0  0
  5  7  1  0  0  0
  7  8  1  0  0  0
  7 39  1  0  0  0
  8  9  1  0  0  0
  8 27  1  0  0  0
  9 10  1  0  0  0
 10 11  1  0  0  0
 10 12  1  0  0  0
 12 13  1  0  0  0
 13 14  1  0  0  0
 13 26  1  0  0  0
 14 15  1  0  0  0
 15 16  1  0  0  0
 16 17  1  0  0  0
 17 18  1  0  0  0
 18 19  1  0  0  0
 18 25  1  0  0  0
 19 20  1  0  0  0
 20 21  1  0  0  0
 20 24  1  0  0  0
 21 22  1  0  0  0
 21 23  1  0  0  0
 23 51  1  0  0  0
 23 52  1  0  0  0
 24 53  1  0  0  0
 25 54  1  0  0  0
 26 55  1  0  0  0
 27 28  1  0  0  0
 28 29  2  0  0  0
 28 30  1  0  0  0
 30 31  1  0  0  0
 31 32  1  0  0  0
 31 36  1  0  0  0
 32 33  1  0  0  0
 33 34  2  0  0  0
 33 35  1  0  0  0
 35 56  1  0  0  0
 36 37  2  0  0  0
 36 38  1  0  0  0
 38 57  1  0  0  0
 39 40  1  0  0  0
 40 41  2  0  0  0
 40 42  1  0  0  0
 42 43  1  0  0  0
 43 44  1  0  0  0
 43 48  1  0  0  0
 44 45  1  0  0  0
 45 46  2  0  0  0
 45 47  1  0  0  0
 47 58  1  0  0  0
 48 49  2  0  0  0
 48 50  1  0  0  0
 50 59  1  0  0  0
M  END
>  <AUTHOR>
    GENERATED BY OPEN BABEL 2.4.1

>  <CHROM.1>
132.76726656,151.66502398,100.18004553,-70.21571939,67.96101175,55.50395353
-123.94037764,168.60409973,37.77379263,28.15897553,-48.25432915,-43.93351241
-153.97620259,-41.98545017,71.31354127,126.40889117,118.86006877,-52.74660470
179.07937142,101.42114384,-52.78731667,-178.90168261,-35.78596087,23.19438991
13.56007466,86.24501018,-169.44552207,-99.35314501,96.79951278,-13.95812037
-21.94335473,-149.04674776,-124.76703178,129.81515193,36.83536526,2.88527045
106.34797012,153.46796427,-177.14770414,-12.22941966,-4.35938103,10.36275842
-1.58529267,-0.99047198,-0.79209990

>  <COMPND>
    UNNAMED

>  <MASTER>
        0    0    0    0    0    0    0    0  109    0  109    0

>  <Name>
FB1.pdb

>  <RI>
0

>  <Rbt.Current_Directory>
/home/fc/tossine/F10/p3/0_clust01

>  <Rbt.Executable>
rbdock/0.1.0

>  <Rbt.Library>
librxdock.so/0.1.0

>  <Rbt.Parameter_File>
/cluster/rxdock/data/scripts/dock.prm

>  <Rbt.Receptor>
rx_0.prm

>  <SCORE>
32.5806

>  <SCORE.INTER>
5.13422

>  <SCORE.INTER.CONST>
1

>  <SCORE.INTER.POLAR>
-2.87453

>  <SCORE.INTER.REPUL>
0.586392

>  <SCORE.INTER.ROT>
32

>  <SCORE.INTER.VDW>
-25.4243

>  <SCORE.INTER.norm>
0.102684

>  <SCORE.INTRA>
25.5628

>  <SCORE.INTRA.DIHEDRAL>
41.7223

>  <SCORE.INTRA.DIHEDRAL.0>
47.3121

>  <SCORE.INTRA.POLAR>
0.729635

>  <SCORE.INTRA.POLAR.0>
-1.47808

>  <SCORE.INTRA.REPUL>
0

>  <SCORE.INTRA.REPUL.0>
0

>  <SCORE.INTRA.VDW>
2.22088

>  <SCORE.INTRA.VDW.0>
-2.78316

>  <SCORE.INTRA.norm>
0.511256

>  <SCORE.RESTR>
1.88356

>  <SCORE.RESTR.CAVITY>
1.88356

>  <SCORE.RESTR.norm>
0.0376713

>  <SCORE.SYSTEM>
0

>  <SCORE.SYSTEM.CONST>
0

>  <SCORE.SYSTEM.DIHEDRAL>
0

>  <SCORE.SYSTEM.norm>
0

>  <SCORE.heavy>
50

>  <SCORE.norm>
0.651612

$$$$
