FB1.pdb
  RxDock  10062015573D
librxdock.so/0.1.0
 59 58  0  0  0  0  0  0  0  0999 V2000
  -10.8223   -3.6853   16.2791 C   0  0  0  0  0  0
  -11.6387   -4.5503   15.3217 C   0  0  0  0  0  0
  -11.0316   -4.5649   13.9091 C   0  0  0  0  0  0
  -11.0341   -3.1768   13.2215 C   0  0  0  0  0  0
  -11.5956   -3.1651   11.7569 C   0  0  0  0  0  0
  -11.7964   -1.6939   11.3256 C   0  0  0  0  0  0
  -10.6773   -3.9400   10.7205 C   0  0  0  0  0  0
  -11.1888   -4.0036    9.2037 C   0  0  0  0  0  0
  -12.0681   -5.1739    8.5829 C   0  0  0  0  0  0
  -12.8038   -6.1563    9.6853 C   0  0  0  0  0  0
  -13.5518   -5.2824   10.6908 C   0  0  0  0  0  0
  -13.7937   -7.2588    9.0943 C   0  0  0  0  0  0
  -14.6134   -8.3210    9.9990 C   0  0  0  0  0  0
  -16.0954   -8.0763   10.4462 C   0  0  0  0  0  0
  -16.3809   -6.9429   11.5340 C   0  0  0  0  0  0
  -15.3488   -6.4948   12.6424 C   0  0  0  0  0  0
  -14.5307   -7.5703   13.4049 C   0  0  0  0  0  0
  -13.1559   -7.1042   14.0227 C   0  0  0  0  0  0
  -12.5864   -7.9766   15.1484 C   0  0  0  0  0  0
  -11.9946   -9.3660   14.7770 C   0  0  0  0  0  0
  -12.0888  -10.5585   15.7742 C   0  0  0  0  0  0
  -13.4344  -11.2651   15.8602 C   0  0  0  0  0  0
  -10.9992  -11.5255   15.5414 N   0  0  0  0  0  0
  -12.7511   -9.7886   13.6138 O   0  0  0  0  0  0
  -12.1940   -7.0428   12.9640 O   0  0  0  0  0  0
  -14.6526   -9.5237    9.2126 O   0  0  0  0  0  0
  -11.9838   -2.8053    8.9924 O   0  0  0  0  0  0
  -12.2070   -2.4322    7.7055 C   0  0  0  0  0  0
  -11.5059   -2.6974    6.7476 O   0  0  0  0  0  0
  -13.5279   -1.7165    7.6397 C   0  0  0  0  0  0
  -13.8819   -1.2603    6.2153 C   0  0  0  0  0  0
  -15.3885   -1.3260    5.9335 C   0  0  0  0  0  0
  -15.6665   -1.9977    4.6088 C   0  0  0  0  0  0
  -14.8897   -1.9744    3.6603 O   0  0  0  0  0  0
  -16.8497   -2.6279    4.5672 O   0  0  0  0  0  0
  -13.3890    0.1889    6.1017 C   0  0  0  0  0  0
  -12.4400    0.5180    5.4064 O   0  0  0  0  0  0
  -14.0561    1.0617    6.8692 O   0  0  0  0  0  0
   -9.2677   -3.4878   10.8116 O   0  0  0  0  0  0
   -8.9978   -2.1375   10.6633 C   0  0  0  0  0  0
   -8.4466   -1.4410   11.5056 O   0  0  0  0  0  0
   -9.4691   -1.5933    9.3083 C   0  0  0  0  0  0
  -10.2415   -0.2384    9.3541 C   0  0  0  0  0  0
   -9.5874    0.9424   10.0945 C   0  0  0  0  0  0
  -10.5683    1.7473   10.8972 C   0  0  0  0  0  0
  -11.4622    2.4457   10.4393 O   0  0  0  0  0  0
  -10.3823    1.6128   12.2192 O   0  0  0  0  0  0
  -10.6978    0.2820    7.9854 C   0  0  0  0  0  0
  -11.5291    1.1588    7.8561 O   0  0  0  0  0  0
  -10.0360   -0.2233    6.9234 O   0  0  0  0  0  0
  -10.1529  -11.0195   15.2839 H   0  0  0  0  0  0
  -11.2310  -12.0869   14.7189 H   0  0  0  0  0  0
  -12.3315  -10.6313   13.3395 H   0  0  0  0  0  0
  -11.3147   -6.8992   13.3599 H   0  0  0  0  0  0
  -13.7371   -9.8049    9.0475 H   0  0  0  0  0  0
  -17.3950   -2.5440    5.3728 H   0  0  0  0  0  0
  -14.9006    0.7125    7.2483 H   0  0  0  0  0  0
   -9.6247    1.0015   12.3359 H   0  0  0  0  0  0
  -10.3702    0.0645    6.0449 H   0  0  0  0  0  0
  1  2  1  0  0  0
  2  3  1  0  0  0
  3  4  1  0  0  0
  4  5  1  0  0  0
  5  6  1  0  0  0
  5  7  1  0  0  0
  7  8  1  0  0  0
  7 39  1  0  0  0
  8  9  1  0  0  0
  8 27  1  0  0  0
  9 10  1  0  0  0
 10 11  1  0  0  0
 10 12  1  0  0  0
 12 13  1  0  0  0
 13 14  1  0  0  0
 13 26  1  0  0  0
 14 15  1  0  0  0
 15 16  1  0  0  0
 16 17  1  0  0  0
 17 18  1  0  0  0
 18 19  1  0  0  0
 18 25  1  0  0  0
 19 20  1  0  0  0
 20 21  1  0  0  0
 20 24  1  0  0  0
 21 22  1  0  0  0
 21 23  1  0  0  0
 23 51  1  0  0  0
 23 52  1  0  0  0
 24 53  1  0  0  0
 25 54  1  0  0  0
 26 55  1  0  0  0
 27 28  1  0  0  0
 28 29  2  0  0  0
 28 30  1  0  0  0
 30 31  1  0  0  0
 31 32  1  0  0  0
 31 36  1  0  0  0
 32 33  1  0  0  0
 33 34  2  0  0  0
 33 35  1  0  0  0
 35 56  1  0  0  0
 36 37  2  0  0  0
 36 38  1  0  0  0
 38 57  1  0  0  0
 39 40  1  0  0  0
 40 41  2  0  0  0
 40 42  1  0  0  0
 42 43  1  0  0  0
 43 44  1  0  0  0
 43 48  1  0  0  0
 44 45  1  0  0  0
 45 46  2  0  0  0
 45 47  1  0  0  0
 47 58  1  0  0  0
 48 49  2  0  0  0
 48 50  1  0  0  0
 50 59  1  0  0  0
M  END
>  <AUTHOR>
    GENERATED BY OPEN BABEL 2.4.1

>  <CHROM.1>
-63.80820213,-131.24889987,168.71557089,178.84640030,-92.64993129,-55.44245973
16.36064337,161.58523999,50.88396315,179.95363375,95.95632880,-70.44908539
59.83711678,-28.38501071,-42.69037532,155.41075648,159.80904989,72.61215256
-170.84353758,-147.86038948,77.93291774,175.78034225,36.57962614,-25.37061273
-179.51900453,145.52629523,-132.73290066,110.22456838,-28.88213218,2.48893800
-13.28774756,121.04230645,134.30150322,52.22853693,-139.83907549,164.63653382
-67.97491612,0.05337206,176.00705760,-12.38645737,-3.84424752,10.33177599
-1.64402211,-0.86779020,-0.71731984

>  <COMPND>
    UNNAMED

>  <MASTER>
        0    0    0    0    0    0    0    0  109    0  109    0

>  <Name>
FB1.pdb

>  <RI>
0

>  <Rbt.Current_Directory>
/home/fc/tossine/F10/p3/0_clust01

>  <Rbt.Executable>
rbdock/0.1.0

>  <Rbt.Library>
librxdock.so/0.1.0

>  <Rbt.Parameter_File>
/cluster/rxdock/data/scripts/dock.prm

>  <Rbt.Receptor>
rx_0.prm

>  <SCORE>
57.2106

>  <SCORE.INTER>
18.8915

>  <SCORE.INTER.CONST>
1

>  <SCORE.INTER.POLAR>
-1.95656

>  <SCORE.INTER.REPUL>
2.25171

>  <SCORE.INTER.ROT>
32

>  <SCORE.INTER.VDW>
-23.1148

>  <SCORE.INTER.norm>
0.377829

>  <SCORE.INTRA>
33.2568

>  <SCORE.INTRA.DIHEDRAL>
36.1877

>  <SCORE.INTRA.DIHEDRAL.0>
47.3121

>  <SCORE.INTRA.POLAR>
1.43224

>  <SCORE.INTRA.POLAR.0>
-1.47808

>  <SCORE.INTRA.REPUL>
0

>  <SCORE.INTRA.REPUL.0>
0

>  <SCORE.INTRA.VDW>
10.2933

>  <SCORE.INTRA.VDW.0>
-2.78316

>  <SCORE.INTRA.norm>
0.665136

>  <SCORE.RESTR>
5.06237

>  <SCORE.RESTR.CAVITY>
5.06237

>  <SCORE.RESTR.norm>
0.101247

>  <SCORE.SYSTEM>
0

>  <SCORE.SYSTEM.CONST>
0

>  <SCORE.SYSTEM.DIHEDRAL>
0

>  <SCORE.SYSTEM.norm>
0

>  <SCORE.heavy>
50

>  <SCORE.norm>
1.14421

$$$$
