FB1.pdb
  RxDock  10062017533D
librxdock.so/0.1.0
 59 58  0  0  0  0  0  0  0  0999 V2000
    7.3591   -8.5583    3.0924 C   0  0  0  0  0  0
    6.6551   -9.2433    4.2614 C   0  0  0  0  0  0
    5.2216   -9.6626    3.8961 C   0  0  0  0  0  0
    4.4283  -10.2537    5.0882 C   0  0  0  0  0  0
    3.0924  -10.9781    4.6997 C   0  0  0  0  0  0
    2.3369  -11.3340    6.0009 C   0  0  0  0  0  0
    2.1729  -10.1300    3.7234 C   0  0  0  0  0  0
    1.8138  -10.7900    2.3086 C   0  0  0  0  0  0
    0.4771  -10.5266    1.4889 C   0  0  0  0  0  0
   -0.1017  -11.8286    0.6576 C   0  0  0  0  0  0
   -0.4461  -12.9296    1.6592 C   0  0  0  0  0  0
   -1.3555  -11.5567   -0.2905 C   0  0  0  0  0  0
   -1.6936  -10.1224   -0.9592 C   0  0  0  0  0  0
   -2.0225   -8.8524   -0.1020 C   0  0  0  0  0  0
   -2.3956   -9.0534    1.4373 C   0  0  0  0  0  0
   -3.1201   -7.9667    2.3254 C   0  0  0  0  0  0
   -4.4026   -7.2749    1.7923 C   0  0  0  0  0  0
   -4.1924   -5.9955    0.8933 C   0  0  0  0  0  0
   -3.7095   -6.2449   -0.5410 C   0  0  0  0  0  0
   -4.7641   -6.6267   -1.6181 C   0  0  0  0  0  0
   -5.4880   -5.5220   -2.4434 C   0  0  0  0  0  0
   -6.0487   -4.3460   -1.6560 C   0  0  0  0  0  0
   -4.6383   -5.0550   -3.5553 N   0  0  0  0  0  0
   -4.0262   -7.4031   -2.5961 O   0  0  0  0  0  0
   -5.4344   -5.2856    0.8380 O   0  0  0  0  0  0
   -0.5152   -9.7761   -1.7063 O   0  0  0  0  0  0
    2.8773  -10.4013    1.3973 O   0  0  0  0  0  0
    3.0841  -11.1965    0.3156 C   0  0  0  0  0  0
    2.7772  -12.3692    0.2156 O   0  0  0  0  0  0
    3.6685  -10.3575   -0.7871 C   0  0  0  0  0  0
    2.6653  -10.0901   -1.9205 C   0  0  0  0  0  0
    3.3011   -9.3570   -3.1086 C   0  0  0  0  0  0
    4.5020  -10.1089   -3.6337 C   0  0  0  0  0  0
    4.4923  -10.7636   -4.6704 O   0  0  0  0  0  0
    5.5881   -9.9913   -2.8556 O   0  0  0  0  0  0
    2.1545  -11.4674   -2.3654 C   0  0  0  0  0  0
    0.9679  -11.7320   -2.4850 O   0  0  0  0  0  0
    3.1185  -12.3765   -2.5658 O   0  0  0  0  0  0
    0.9650   -9.6307    4.4246 O   0  0  0  0  0  0
   -0.0772  -10.5139    4.6524 C   0  0  0  0  0  0
   -0.0510  -11.7070    4.3798 O   0  0  0  0  0  0
   -1.2917   -9.8307    5.2946 C   0  0  0  0  0  0
   -2.6285  -10.6333    5.2388 C   0  0  0  0  0  0
   -2.9900  -11.5211    6.4436 C   0  0  0  0  0  0
   -1.8610  -11.6699    7.4222 C   0  0  0  0  0  0
   -0.8598  -12.3534    7.2580 O   0  0  0  0  0  0
   -2.0458  -10.9411    8.5335 O   0  0  0  0  0  0
   -3.8661   -9.7889    4.9110 C   0  0  0  0  0  0
   -4.6843  -10.1139    4.0733 O   0  0  0  0  0  0
   -4.0506   -8.7038    5.6919 O   0  0  0  0  0  0
   -3.9967   -5.8007   -3.8215 H   0  0  0  0  0  0
   -4.0383   -4.3009   -3.2135 H   0  0  0  0  0  0
   -4.7043   -7.6965   -3.2407 H   0  0  0  0  0  0
   -5.5553   -4.8176    1.6847 H   0  0  0  0  0  0
   -0.2876  -10.5301   -2.2755 H   0  0  0  0  0  0
    6.3887  -10.4416   -3.1869 H   0  0  0  0  0  0
    2.7885  -13.2799   -2.7977 H   0  0  0  0  0  0
   -2.7972  -10.3377    8.3525 H   0  0  0  0  0  0
   -3.2737   -8.4390    6.2327 H   0  0  0  0  0  0
  1  2  1  0  0  0
  2  3  1  0  0  0
  3  4  1  0  0  0
  4  5  1  0  0  0
  5  6  1  0  0  0
  5  7  1  0  0  0
  7  8  1  0  0  0
  7 39  1  0  0  0
  8  9  1  0  0  0
  8 27  1  0  0  0
  9 10  1  0  0  0
 10 11  1  0  0  0
 10 12  1  0  0  0
 12 13  1  0  0  0
 13 14  1  0  0  0
 13 26  1  0  0  0
 14 15  1  0  0  0
 15 16  1  0  0  0
 16 17  1  0  0  0
 17 18  1  0  0  0
 18 19  1  0  0  0
 18 25  1  0  0  0
 19 20  1  0  0  0
 20 21  1  0  0  0
 20 24  1  0  0  0
 21 22  1  0  0  0
 21 23  1  0  0  0
 23 51  1  0  0  0
 23 52  1  0  0  0
 24 53  1  0  0  0
 25 54  1  0  0  0
 26 55  1  0  0  0
 27 28  1  0  0  0
 28 29  2  0  0  0
 28 30  1  0  0  0
 30 31  1  0  0  0
 31 32  1  0  0  0
 31 36  1  0  0  0
 32 33  1  0  0  0
 33 34  2  0  0  0
 33 35  1  0  0  0
 35 56  1  0  0  0
 36 37  2  0  0  0
 36 38  1  0  0  0
 38 57  1  0  0  0
 39 40  1  0  0  0
 40 41  2  0  0  0
 40 42  1  0  0  0
 42 43  1  0  0  0
 43 44  1  0  0  0
 43 48  1  0  0  0
 44 45  1  0  0  0
 45 46  2  0  0  0
 45 47  1  0  0  0
 47 58  1  0  0  0
 48 49  2  0  0  0
 48 50  1  0  0  0
 50 59  1  0  0  0
M  END
>  <AUTHOR>
    GENERATED BY OPEN BABEL 2.4.1

>  <CHROM.1>
-175.11941036,-167.13441799,-172.37107146,120.84552492,150.12621278,-77.48529630
-144.75255209,156.32502274,62.04902135,26.48081588,-62.50359593,-15.67325669
51.33838268,-162.61762160,49.04781813,-86.76476508,74.85331100,82.37240425
76.01419394,89.46736200,-47.17092740,176.11021701,26.50064141,-23.35928644
-107.57090020,-174.18771047,55.52276729,130.06366099,104.67499967,-177.94929325
176.36740207,4.10775315,164.23175020,93.79659998,-10.07785701,132.23402606
-74.25565866,-11.54286811,14.58587376,-0.11564324,-9.69001371,1.46652201
0.08649058,-0.37260164,1.82014145

>  <COMPND>
    UNNAMED

>  <MASTER>
        0    0    0    0    0    0    0    0  109    0  109    0

>  <Name>
FB1.pdb

>  <RI>
0

>  <Rbt.Current_Directory>
/home/fc/tossine/F10/p3/0_clust01

>  <Rbt.Executable>
rbdock/0.1.0

>  <Rbt.Library>
librxdock.so/0.1.0

>  <Rbt.Parameter_File>
/cluster/rxdock/data/scripts/dock.prm

>  <Rbt.Receptor>
rx_3.prm

>  <SCORE>
44.9911

>  <SCORE.INTER>
21.9971

>  <SCORE.INTER.CONST>
1

>  <SCORE.INTER.POLAR>
-1.0583

>  <SCORE.INTER.REPUL>
0.579978

>  <SCORE.INTER.ROT>
32

>  <SCORE.INTER.VDW>
-14.7046

>  <SCORE.INTER.norm>
0.439942

>  <SCORE.INTRA>
11.5385

>  <SCORE.INTRA.DIHEDRAL>
16.6465

>  <SCORE.INTRA.DIHEDRAL.0>
47.3121

>  <SCORE.INTRA.POLAR>
0.640836

>  <SCORE.INTRA.POLAR.0>
-1.47808

>  <SCORE.INTRA.REPUL>
0

>  <SCORE.INTRA.REPUL.0>
0

>  <SCORE.INTRA.VDW>
1.03637

>  <SCORE.INTRA.VDW.0>
-2.78316

>  <SCORE.INTRA.norm>
0.23077

>  <SCORE.RESTR>
11.4555

>  <SCORE.RESTR.CAVITY>
11.4555

>  <SCORE.RESTR.norm>
0.22911

>  <SCORE.SYSTEM>
0

>  <SCORE.SYSTEM.CONST>
0

>  <SCORE.SYSTEM.DIHEDRAL>
0

>  <SCORE.SYSTEM.norm>
0

>  <SCORE.heavy>
50

>  <SCORE.norm>
0.899822

$$$$
