FB1.pdb
  RxDock  10052003183D
librxdock.so/0.1.0
 59 58  0  0  0  0  0  0  0  0999 V2000
  -11.3634   -1.1466    4.5170 C   0  0  0  0  0  0
  -10.8864   -0.0826    5.5027 C   0  0  0  0  0  0
  -11.9156    1.0488    5.6614 C   0  0  0  0  0  0
  -13.3341    0.5462    6.0288 C   0  0  0  0  0  0
  -13.4061   -0.3503    7.3139 C   0  0  0  0  0  0
  -14.8899   -0.6877    7.5880 C   0  0  0  0  0  0
  -12.5328   -1.6713    7.2143 C   0  0  0  0  0  0
  -11.3102   -1.8121    8.2398 C   0  0  0  0  0  0
  -10.9042   -0.7317    9.3335 C   0  0  0  0  0  0
   -9.8120    0.3972    8.8297 C   0  0  0  0  0  0
   -9.4958    1.3236   10.0027 C   0  0  0  0  0  0
   -8.4534   -0.1657    8.2114 C   0  0  0  0  0  0
   -7.2877    0.7649    7.5839 C   0  0  0  0  0  0
   -6.2485    1.5259    8.4767 C   0  0  0  0  0  0
   -4.8771    1.9969    7.8083 C   0  0  0  0  0  0
   -3.5241    1.1862    7.8902 C   0  0  0  0  0  0
   -2.2494    1.7556    7.2132 C   0  0  0  0  0  0
   -0.8662    1.3232    7.8368 C   0  0  0  0  0  0
    0.3881    1.7168    7.0466 C   0  0  0  0  0  0
    1.7765    1.5073    7.7149 C   0  0  0  0  0  0
    2.3444    2.5641    8.7079 C   0  0  0  0  0  0
    3.8052    2.9507    8.5235 C   0  0  0  0  0  0
    1.4834    3.7613    8.7503 N   0  0  0  0  0  0
    1.6278    0.2966    8.4997 O   0  0  0  0  0  0
   -0.7753    1.8923    9.1474 O   0  0  0  0  0  0
   -6.5037   -0.1236    6.7699 O   0  0  0  0  0  0
  -11.5590   -3.0226    9.0049 O   0  0  0  0  0  0
  -10.6630   -4.0343    8.8674 C   0  0  0  0  0  0
   -9.6219   -3.9929    8.2398 O   0  0  0  0  0  0
  -11.1214   -5.1937    9.7082 C   0  0  0  0  0  0
  -10.9818   -4.9221   11.2146 C   0  0  0  0  0  0
  -12.3285   -4.6256   11.8867 C   0  0  0  0  0  0
  -12.2231   -3.4420   12.8201 C   0  0  0  0  0  0
  -11.4926   -3.4176   13.8047 O   0  0  0  0  0  0
  -13.0070   -2.4123   12.4679 O   0  0  0  0  0  0
  -10.3625   -6.1912   11.8164 C   0  0  0  0  0  0
  -10.9511   -6.9081   12.6114 O   0  0  0  0  0  0
   -9.0990   -6.4243   11.4354 O   0  0  0  0  0  0
  -13.3909   -2.8811    7.2053 O   0  0  0  0  0  0
  -13.7902   -3.3968    5.9836 C   0  0  0  0  0  0
  -13.7384   -4.5808    5.6771 O   0  0  0  0  0  0
  -14.3153   -2.3110    5.0351 C   0  0  0  0  0  0
  -14.8546   -2.8154    3.6606 C   0  0  0  0  0  0
  -15.1612   -4.3167    3.5107 C   0  0  0  0  0  0
  -13.9474   -5.1320    3.1692 C   0  0  0  0  0  0
  -12.7906   -4.7347    3.1950 O   0  0  0  0  0  0
  -14.2546   -6.3950    2.8366 O   0  0  0  0  0  0
  -16.0746   -2.0493    3.1343 C   0  0  0  0  0  0
  -17.1090   -1.9426    3.7632 O   0  0  0  0  0  0
  -15.8923   -1.4033    1.9636 O   0  0  0  0  0  0
    1.7581    4.3425    9.5410 H   0  0  0  0  0  0
    0.5263    3.4681    8.9588 H   0  0  0  0  0  0
    2.5032    0.1673    8.9220 H   0  0  0  0  0  0
   -1.3731    1.3964    9.7365 H   0  0  0  0  0  0
   -5.8581    0.4106    6.2777 H   0  0  0  0  0  0
  -13.4383   -2.4962   11.5959 H   0  0  0  0  0  0
   -8.7126   -5.7278   10.8486 H   0  0  0  0  0  0
  -15.2217   -6.4924    2.9646 H   0  0  0  0  0  0
  -15.0862   -1.6605    1.4634 H   0  0  0  0  0  0
  1  2  1  0  0  0
  2  3  1  0  0  0
  3  4  1  0  0  0
  4  5  1  0  0  0
  5  6  1  0  0  0
  5  7  1  0  0  0
  7  8  1  0  0  0
  7 39  1  0  0  0
  8  9  1  0  0  0
  8 27  1  0  0  0
  9 10  1  0  0  0
 10 11  1  0  0  0
 10 12  1  0  0  0
 12 13  1  0  0  0
 13 14  1  0  0  0
 13 26  1  0  0  0
 14 15  1  0  0  0
 15 16  1  0  0  0
 16 17  1  0  0  0
 17 18  1  0  0  0
 18 19  1  0  0  0
 18 25  1  0  0  0
 19 20  1  0  0  0
 20 21  1  0  0  0
 20 24  1  0  0  0
 21 22  1  0  0  0
 21 23  1  0  0  0
 23 51  1  0  0  0
 23 52  1  0  0  0
 24 53  1  0  0  0
 25 54  1  0  0  0
 26 55  1  0  0  0
 27 28  1  0  0  0
 28 29  2  0  0  0
 28 30  1  0  0  0
 30 31  1  0  0  0
 31 32  1  0  0  0
 31 36  1  0  0  0
 32 33  1  0  0  0
 33 34  2  0  0  0
 33 35  1  0  0  0
 35 56  1  0  0  0
 36 37  2  0  0  0
 36 38  1  0  0  0
 38 57  1  0  0  0
 39 40  1  0  0  0
 40 41  2  0  0  0
 40 42  1  0  0  0
 42 43  1  0  0  0
 43 44  1  0  0  0
 43 48  1  0  0  0
 44 45  1  0  0  0
 45 46  2  0  0  0
 45 47  1  0  0  0
 47 58  1  0  0  0
 48 49  2  0  0  0
 48 50  1  0  0  0
 50 59  1  0  0  0
M  END
>  <AUTHOR>
    GENERATED BY OPEN BABEL 2.4.1

>  <CHROM.1>
53.50325089,55.30559286,176.41568548,116.04574029,-0.45077902,92.44140768
-90.43562972,116.15321106,-178.11739933,176.46189418,79.43980791,159.57632550
172.69252128,-96.42789564,-179.26246802,152.74156637,171.31730257,170.95360909
73.57471370,-82.64610671,-134.89513489,-179.85932943,167.93750603,5.57729353
-70.49294713,104.68868404,-135.25478256,-114.98759105,-61.82531555,-8.80641317
2.67437021,133.20401617,-177.01936341,15.67658874,-83.84668552,-56.99216291
10.66344228,-4.03561532,14.18461054,-9.32503859,-1.54864039,7.67289844,3.12597055
0.38491928,2.02503032

>  <COMPND>
    UNNAMED

>  <MASTER>
        0    0    0    0    0    0    0    0  109    0  109    0

>  <Name>
FB1.pdb

>  <RI>
0

>  <Rbt.Current_Directory>
/home/fc/tossine/F10/p3/0_clust01

>  <Rbt.Executable>
rbdock/0.1.0

>  <Rbt.Library>
librxdock.so/0.1.0

>  <Rbt.Parameter_File>
dock.prm

>  <Rbt.Receptor>
rx_1.prm

>  <SCORE>
51.2786

>  <SCORE.INTER>
14.7345

>  <SCORE.INTER.CONST>
1

>  <SCORE.INTER.POLAR>
-2.07861

>  <SCORE.INTER.REPUL>
0.50396

>  <SCORE.INTER.ROT>
32

>  <SCORE.INTER.VDW>
-18.1181

>  <SCORE.INTER.norm>
0.294689

>  <SCORE.INTRA>
28.4717

>  <SCORE.INTRA.DIHEDRAL>
34.583

>  <SCORE.INTRA.DIHEDRAL.0>
47.3121

>  <SCORE.INTRA.POLAR>
0.551017

>  <SCORE.INTRA.POLAR.0>
-1.47808

>  <SCORE.INTRA.REPUL>
0

>  <SCORE.INTRA.REPUL.0>
0

>  <SCORE.INTRA.VDW>
9.30672

>  <SCORE.INTRA.VDW.0>
-2.78316

>  <SCORE.INTRA.norm>
0.569433

>  <SCORE.RESTR>
8.0725

>  <SCORE.RESTR.CAVITY>
8.0725

>  <SCORE.RESTR.norm>
0.16145

>  <SCORE.SYSTEM>
0

>  <SCORE.SYSTEM.CONST>
0

>  <SCORE.SYSTEM.DIHEDRAL>
0

>  <SCORE.SYSTEM.norm>
0

>  <SCORE.heavy>
50

>  <SCORE.norm>
1.02557

$$$$
