FB1.pdb
  RxDock  10062017463D
librxdock.so/0.1.0
 59 58  0  0  0  0  0  0  0  0999 V2000
   -4.2846  -11.9275    7.6201 C   0  0  0  0  0  0
   -2.8931  -11.6524    7.0550 C   0  0  0  0  0  0
   -2.5301  -12.6369    5.9311 C   0  0  0  0  0  0
   -1.2784  -12.2156    5.1214 C   0  0  0  0  0  0
   -0.0354  -11.8106    5.9881 C   0  0  0  0  0  0
    0.6869  -13.1027    6.4347 C   0  0  0  0  0  0
    0.9647  -10.8304    5.2417 C   0  0  0  0  0  0
    1.7117  -11.4044    3.9461 C   0  0  0  0  0  0
    1.1113  -11.4162    2.4738 C   0  0  0  0  0  0
    2.1314  -11.9813    1.3069 C   0  0  0  0  0  0
    2.7208  -13.3093    1.7794 C   0  0  0  0  0  0
    1.5035  -12.1623   -0.1483 C   0  0  0  0  0  0
    0.7472  -10.9865   -0.9632 C   0  0  0  0  0  0
   -0.6449  -10.4189   -0.5205 C   0  0  0  0  0  0
   -1.4748   -9.5459   -1.5685 C   0  0  0  0  0  0
   -1.5832   -9.8738   -3.1097 C   0  0  0  0  0  0
   -2.1945   -8.8230   -4.0739 C   0  0  0  0  0  0
   -2.4195   -9.2818   -5.5666 C   0  0  0  0  0  0
   -1.2335   -9.9726   -6.2511 C   0  0  0  0  0  0
    0.1082   -9.1945   -6.3640 C   0  0  0  0  0  0
    1.4372   -9.8315   -5.8605 C   0  0  0  0  0  0
    1.6099   -9.9351   -4.3516 C   0  0  0  0  0  0
    1.6738  -11.1352   -6.5091 N   0  0  0  0  0  0
    0.3013   -8.9994   -7.7882 O   0  0  0  0  0  0
   -3.5403  -10.1722   -5.5909 O   0  0  0  0  0  0
    1.6440   -9.8642   -0.9101 O   0  0  0  0  0  0
    2.9493  -10.6521    3.8239 O   0  0  0  0  0  0
    4.1073  -11.3323    4.0275 C   0  0  0  0  0  0
    4.2107  -12.5180    4.2783 O   0  0  0  0  0  0
    5.2584  -10.3941    3.7904 C   0  0  0  0  0  0
    5.9053   -9.9110    5.0983 C   0  0  0  0  0  0
    6.7948   -8.6779    4.8947 C   0  0  0  0  0  0
    7.3323   -8.1698    6.2124 C   0  0  0  0  0  0
    6.6741   -7.4988    7.0000 O   0  0  0  0  0  0
    8.6049   -8.5251    6.4431 O   0  0  0  0  0  0
    4.7440   -9.5709    6.0427 C   0  0  0  0  0  0
    4.3304   -8.4334    6.2084 O   0  0  0  0  0  0
    4.2497  -10.6213    6.7121 O   0  0  0  0  0  0
    0.3297   -9.5161    4.9787 O   0  0  0  0  0  0
   -0.5663   -9.0188    5.9103 C   0  0  0  0  0  0
   -0.7472   -9.4925    7.0244 O   0  0  0  0  0  0
   -1.3236   -7.7886    5.3931 C   0  0  0  0  0  0
   -2.1272   -7.9940    4.0716 C   0  0  0  0  0  0
   -2.4685   -9.4346    3.6490 C   0  0  0  0  0  0
   -3.6404  -10.0030    4.3959 C   0  0  0  0  0  0
   -4.0870   -9.5783    5.4527 O   0  0  0  0  0  0
   -4.1906  -11.0521    3.7659 O   0  0  0  0  0  0
   -3.4213   -7.1761    3.9786 C   0  0  0  0  0  0
   -4.3091   -7.4325    3.1893 O   0  0  0  0  0  0
   -3.5632   -6.2083    4.9083 O   0  0  0  0  0  0
    0.8724  -11.7420   -6.3416 H   0  0  0  0  0  0
    2.4562  -11.5965   -6.0395 H   0  0  0  0  0  0
    0.3996   -9.9052   -8.1502 H   0  0  0  0  0  0
   -3.3427  -10.9260   -5.0051 H   0  0  0  0  0  0
    1.6853   -9.5556    0.0106 H   0  0  0  0  0  0
    8.9720   -8.2279    7.2977 H   0  0  0  0  0  0
    3.4586  -10.4167    7.2699 H   0  0  0  0  0  0
   -3.6112  -11.2570    3.0020 H   0  0  0  0  0  0
   -2.7263   -5.7901    5.2098 H   0  0  0  0  0  0
  1  2  1  0  0  0
  2  3  1  0  0  0
  3  4  1  0  0  0
  4  5  1  0  0  0
  5  6  1  0  0  0
  5  7  1  0  0  0
  7  8  1  0  0  0
  7 39  1  0  0  0
  8  9  1  0  0  0
  8 27  1  0  0  0
  9 10  1  0  0  0
 10 11  1  0  0  0
 10 12  1  0  0  0
 12 13  1  0  0  0
 13 14  1  0  0  0
 13 26  1  0  0  0
 14 15  1  0  0  0
 15 16  1  0  0  0
 16 17  1  0  0  0
 17 18  1  0  0  0
 18 19  1  0  0  0
 18 25  1  0  0  0
 19 20  1  0  0  0
 20 21  1  0  0  0
 20 24  1  0  0  0
 21 22  1  0  0  0
 21 23  1  0  0  0
 23 51  1  0  0  0
 23 52  1  0  0  0
 24 53  1  0  0  0
 25 54  1  0  0  0
 26 55  1  0  0  0
 27 28  1  0  0  0
 28 29  2  0  0  0
 28 30  1  0  0  0
 30 31  1  0  0  0
 31 32  1  0  0  0
 31 36  1  0  0  0
 32 33  1  0  0  0
 33 34  2  0  0  0
 33 35  1  0  0  0
 35 56  1  0  0  0
 36 37  2  0  0  0
 36 38  1  0  0  0
 38 57  1  0  0  0
 39 40  1  0  0  0
 40 41  2  0  0  0
 40 42  1  0  0  0
 42 43  1  0  0  0
 43 44  1  0  0  0
 43 48  1  0  0  0
 44 45  1  0  0  0
 45 46  2  0  0  0
 45 47  1  0  0  0
 47 58  1  0  0  0
 48 49  2  0  0  0
 48 50  1  0  0  0
 50 59  1  0  0  0
M  END
>  <AUTHOR>
    GENERATED BY OPEN BABEL 2.4.1

>  <CHROM.1>
167.33931461,48.56755952,81.09916361,-64.60073871,84.66947423,34.72144888
176.35552150,112.60826430,49.28595218,54.75296897,-69.05796405,-164.60547114
-67.90542300,40.09037066,-168.82227348,-173.30973489,-48.58398898,-58.71906653
-58.75122146,127.23969654,-72.31643480,-63.84008457,-56.19420703,1.45676974
103.69190587,-163.83139710,175.83233019,-98.24887592,-78.40772000,-178.62797700
-175.67755499,10.23924656,57.39132713,18.92213191,79.14177790,-162.51030333
-18.55116210,6.46309569,31.89176608,0.58094036,-10.06132269,2.27900973,1.28762712
-0.01257111,1.57391820

>  <COMPND>
    UNNAMED

>  <MASTER>
        0    0    0    0    0    0    0    0  109    0  109    0

>  <Name>
FB1.pdb

>  <RI>
0

>  <Rbt.Current_Directory>
/home/fc/tossine/F10/p3/0_clust01

>  <Rbt.Executable>
rbdock/0.1.0

>  <Rbt.Library>
librxdock.so/0.1.0

>  <Rbt.Parameter_File>
/cluster/rxdock/data/scripts/dock.prm

>  <Rbt.Receptor>
rx_3.prm

>  <SCORE>
30.4495

>  <SCORE.INTER>
15.4454

>  <SCORE.INTER.CONST>
1

>  <SCORE.INTER.POLAR>
-1.39709

>  <SCORE.INTER.REPUL>
0.99626

>  <SCORE.INTER.ROT>
32

>  <SCORE.INTER.VDW>
-22.1858

>  <SCORE.INTER.norm>
0.308908

>  <SCORE.INTRA>
7.58719

>  <SCORE.INTRA.DIHEDRAL>
4.4064

>  <SCORE.INTRA.DIHEDRAL.0>
47.3121

>  <SCORE.INTRA.POLAR>
1.43562

>  <SCORE.INTRA.POLAR.0>
-1.47808

>  <SCORE.INTRA.REPUL>
0

>  <SCORE.INTRA.REPUL.0>
0

>  <SCORE.INTRA.VDW>
0.502864

>  <SCORE.INTRA.VDW.0>
-2.78316

>  <SCORE.INTRA.norm>
0.151744

>  <SCORE.RESTR>
7.41691

>  <SCORE.RESTR.CAVITY>
7.41691

>  <SCORE.RESTR.norm>
0.148338

>  <SCORE.SYSTEM>
0

>  <SCORE.SYSTEM.CONST>
0

>  <SCORE.SYSTEM.DIHEDRAL>
0

>  <SCORE.SYSTEM.norm>
0

>  <SCORE.heavy>
50

>  <SCORE.norm>
0.60899

$$$$
