FB1.pdb
  RxDock  10062017153D
librxdock.so/0.1.0
 59 58  0  0  0  0  0  0  0  0999 V2000
    8.0033   -1.6429   -9.1284 C   0  0  0  0  0  0
    7.6500   -3.0865   -8.7784 C   0  0  0  0  0  0
    6.5260   -3.6311   -9.6753 C   0  0  0  0  0  0
    5.2923   -2.6977   -9.7546 C   0  0  0  0  0  0
    4.4994   -2.5336   -8.4111 C   0  0  0  0  0  0
    5.2761   -1.5495   -7.5061 C   0  0  0  0  0  0
    3.0004   -2.0548   -8.6148 C   0  0  0  0  0  0
    2.2308   -2.6086   -9.9061 C   0  0  0  0  0  0
    1.9932   -1.7924  -11.2497 C   0  0  0  0  0  0
    1.1950   -0.3604  -11.0664 C   0  0  0  0  0  0
    0.8101   -0.2044   -9.5962 C   0  0  0  0  0  0
    1.9699    0.9445  -11.5578 C   0  0  0  0  0  0
    1.8312    1.5781  -13.0403 C   0  0  0  0  0  0
    0.9198    2.8167  -13.3427 C   0  0  0  0  0  0
    1.2102    3.6664  -14.6629 C   0  0  0  0  0  0
    0.6161    3.3273  -16.0865 C   0  0  0  0  0  0
   -0.7065    3.9981  -16.5426 C   0  0  0  0  0  0
   -0.8217    5.5555  -16.3182 C   0  0  0  0  0  0
   -0.1195    6.4447  -17.3521 C   0  0  0  0  0  0
    0.7307    7.6414  -16.8391 C   0  0  0  0  0  0
    2.2037    7.4270  -16.3812 C   0  0  0  0  0  0
    2.9861    6.3390  -17.1032 C   0  0  0  0  0  0
    2.9463    8.7018  -16.3857 N   0  0  0  0  0  0
    0.8172    8.5432  -17.9720 O   0  0  0  0  0  0
   -2.2120    5.8967  -16.2944 O   0  0  0  0  0  0
    3.1614    1.9971  -13.3891 O   0  0  0  0  0  0
    2.9517   -3.7974  -10.3299 O   0  0  0  0  0  0
    3.0317   -4.8204   -9.4398 C   0  0  0  0  0  0
    3.0238   -4.7215   -8.2276 O   0  0  0  0  0  0
    3.0300   -6.1163  -10.2027 C   0  0  0  0  0  0
    1.6225   -6.7184  -10.3405 C   0  0  0  0  0  0
    0.9765   -6.4009  -11.6952 C   0  0  0  0  0  0
   -0.5169   -6.6275  -11.6535 C   0  0  0  0  0  0
   -1.0599   -7.4350  -10.9073 O   0  0  0  0  0  0
   -1.1986   -5.8564  -12.5135 O   0  0  0  0  0  0
    1.7953   -8.2354  -10.1835 C   0  0  0  0  0  0
    1.0807   -8.9173   -9.4647 O   0  0  0  0  0  0
    2.8300   -8.7475  -10.8641 O   0  0  0  0  0  0
    2.2066   -2.2382   -7.3754 O   0  0  0  0  0  0
    2.4734   -1.4150   -6.2941 C   0  0  0  0  0  0
    2.5856   -0.1977   -6.3566 O   0  0  0  0  0  0
    2.6160   -2.2004   -4.9837 C   0  0  0  0  0  0
    2.9198   -1.3479   -3.7127 C   0  0  0  0  0  0
    2.4684    0.1241   -3.7041 C   0  0  0  0  0  0
    3.5689    1.0772   -4.0717 C   0  0  0  0  0  0
    4.3213    0.9632   -5.0295 O   0  0  0  0  0  0
    3.6462    2.1204   -3.2314 O   0  0  0  0  0  0
    2.4452   -1.9748   -2.3959 C   0  0  0  0  0  0
    3.1979   -2.2286   -1.4763 O   0  0  0  0  0  0
    1.1101   -2.1318   -2.2771 O   0  0  0  0  0  0
    2.6386    9.2648  -17.1775 H   0  0  0  0  0  0
    3.9325    8.5046  -16.5700 H   0  0  0  0  0  0
    1.0630    7.9679  -18.7269 H   0  0  0  0  0  0
   -2.6526    5.3315  -15.6334 H   0  0  0  0  0  0
    3.4622    2.6326  -12.7182 H   0  0  0  0  0  0
   -2.1694   -5.9576  -12.4845 H   0  0  0  0  0  0
    2.9210   -9.7301  -10.7938 H   0  0  0  0  0  0
    3.0657    1.9115   -2.4694 H   0  0  0  0  0  0
    0.5786   -1.7896   -3.0298 H   0  0  0  0  0  0
  1  2  1  0  0  0
  2  3  1  0  0  0
  3  4  1  0  0  0
  4  5  1  0  0  0
  5  6  1  0  0  0
  5  7  1  0  0  0
  7  8  1  0  0  0
  7 39  1  0  0  0
  8  9  1  0  0  0
  8 27  1  0  0  0
  9 10  1  0  0  0
 10 11  1  0  0  0
 10 12  1  0  0  0
 12 13  1  0  0  0
 13 14  1  0  0  0
 13 26  1  0  0  0
 14 15  1  0  0  0
 15 16  1  0  0  0
 16 17  1  0  0  0
 17 18  1  0  0  0
 18 19  1  0  0  0
 18 25  1  0  0  0
 19 20  1  0  0  0
 20 21  1  0  0  0
 20 24  1  0  0  0
 21 22  1  0  0  0
 21 23  1  0  0  0
 23 51  1  0  0  0
 23 52  1  0  0  0
 24 53  1  0  0  0
 25 54  1  0  0  0
 26 55  1  0  0  0
 27 28  1  0  0  0
 28 29  2  0  0  0
 28 30  1  0  0  0
 30 31  1  0  0  0
 31 32  1  0  0  0
 31 36  1  0  0  0
 32 33  1  0  0  0
 33 34  2  0  0  0
 33 35  1  0  0  0
 35 56  1  0  0  0
 36 37  2  0  0  0
 36 38  1  0  0  0
 38 57  1  0  0  0
 39 40  1  0  0  0
 40 41  2  0  0  0
 40 42  1  0  0  0
 42 43  1  0  0  0
 43 44  1  0  0  0
 43 48  1  0  0  0
 44 45  1  0  0  0
 45 46  2  0  0  0
 45 47  1  0  0  0
 47 58  1  0  0  0
 48 49  2  0  0  0
 48 50  1  0  0  0
 50 59  1  0  0  0
M  END
>  <AUTHOR>
    GENERATED BY OPEN BABEL 2.4.1

>  <CHROM.1>
-50.25200636,-66.21955610,78.00205858,35.61860044,-101.38367109,70.43363755
-57.19955811,60.35745288,-2.77034462,92.49572772,100.11276171,159.48860209
-58.33013893,86.54027207,93.25587515,46.77299455,79.97476462,-134.84753289
53.37942750,83.49340403,32.33728200,-47.52582728,-36.80424532,-28.89343386
-93.97393750,98.28109535,-162.82102837,133.20813913,-27.89141230,-177.81122469
-177.62652430,47.85045344,179.92300431,25.83114319,-97.53746053,121.33695163
47.86581135,10.88872884,-2.71285757,2.24961410,-0.67428267,-10.28287822,-1.06511709
-1.28000427,-0.26173780

>  <COMPND>
    UNNAMED

>  <MASTER>
        0    0    0    0    0    0    0    0  109    0  109    0

>  <Name>
FB1.pdb

>  <RI>
0

>  <Rbt.Current_Directory>
/home/fc/tossine/F10/p3/0_clust01

>  <Rbt.Executable>
rbdock/0.1.0

>  <Rbt.Library>
librxdock.so/0.1.0

>  <Rbt.Parameter_File>
/cluster/rxdock/data/scripts/dock.prm

>  <Rbt.Receptor>
rx_2.prm

>  <SCORE>
85.0326

>  <SCORE.INTER>
37.8358

>  <SCORE.INTER.CONST>
1

>  <SCORE.INTER.POLAR>
-2.50517

>  <SCORE.INTER.REPUL>
1.97678

>  <SCORE.INTER.ROT>
32

>  <SCORE.INTER.VDW>
-0.930525

>  <SCORE.INTER.norm>
0.756716

>  <SCORE.INTRA>
37.0466

>  <SCORE.INTRA.DIHEDRAL>
38.8951

>  <SCORE.INTRA.DIHEDRAL.0>
47.3121

>  <SCORE.INTRA.POLAR>
1.37377

>  <SCORE.INTRA.POLAR.0>
-1.47808

>  <SCORE.INTRA.REPUL>
0

>  <SCORE.INTRA.REPUL.0>
0

>  <SCORE.INTRA.VDW>
12.9282

>  <SCORE.INTRA.VDW.0>
-2.78316

>  <SCORE.INTRA.norm>
0.740931

>  <SCORE.RESTR>
10.1502

>  <SCORE.RESTR.CAVITY>
10.1502

>  <SCORE.RESTR.norm>
0.203005

>  <SCORE.SYSTEM>
0

>  <SCORE.SYSTEM.CONST>
0

>  <SCORE.SYSTEM.DIHEDRAL>
0

>  <SCORE.SYSTEM.norm>
0

>  <SCORE.heavy>
50

>  <SCORE.norm>
1.70065

$$$$
