FB1.pdb
  RxDock  10062015583D
librxdock.so/0.1.0
 59 58  0  0  0  0  0  0  0  0999 V2000
   -9.9192    2.7701   11.8844 C   0  0  0  0  0  0
  -11.3152    2.2062   11.6304 C   0  0  0  0  0  0
  -11.2594    0.7600   11.1113 C   0  0  0  0  0  0
  -10.5453    0.6219    9.7435 C   0  0  0  0  0  0
  -10.8429   -0.7118    8.9734 C   0  0  0  0  0  0
   -9.5224   -1.2152    8.3460 C   0  0  0  0  0  0
  -11.5035   -1.8332    9.8811 C   0  0  0  0  0  0
  -11.8530   -3.2271    9.1733 C   0  0  0  0  0  0
  -11.6877   -4.6600    9.8425 C   0  0  0  0  0  0
  -11.6244   -5.9234    8.7837 C   0  0  0  0  0  0
  -10.1587   -6.2270    8.4777 C   0  0  0  0  0  0
  -12.3637   -7.2612    9.2405 C   0  0  0  0  0  0
  -13.6939   -7.8503    8.5319 C   0  0  0  0  0  0
  -14.8299   -8.5656    9.3406 C   0  0  0  0  0  0
  -15.6896   -7.6974   10.3684 C   0  0  0  0  0  0
  -15.0770   -6.8931   11.5818 C   0  0  0  0  0  0
  -15.9487   -6.6196   12.8359 C   0  0  0  0  0  0
  -15.4053   -5.5414   13.8515 C   0  0  0  0  0  0
  -14.5696   -6.0720   15.0230 C   0  0  0  0  0  0
  -13.1061   -6.5169   14.7429 C   0  0  0  0  0  0
  -12.3627   -7.4613   15.7333 C   0  0  0  0  0  0
  -12.3853   -7.0573   17.2008 C   0  0  0  0  0  0
  -12.8091   -8.8572   15.5637 N   0  0  0  0  0  0
  -13.1794   -7.2598   13.4992 O   0  0  0  0  0  0
  -14.6133   -4.6020   13.1166 O   0  0  0  0  0  0
  -14.3256   -6.7101    7.9258 O   0  0  0  0  0  0
  -13.2594   -3.1585    8.8129 O   0  0  0  0  0  0
  -13.6680   -2.0578    8.1296 C   0  0  0  0  0  0
  -14.3017   -1.1238    8.5829 O   0  0  0  0  0  0
  -13.1179   -2.1336    6.7321 C   0  0  0  0  0  0
  -14.0133   -1.4215    5.7057 C   0  0  0  0  0  0
  -13.5684    0.0219    5.4375 C   0  0  0  0  0  0
  -12.0713    0.1668    5.5830 C   0  0  0  0  0  0
  -11.5280    0.6218    6.5837 O   0  0  0  0  0  0
  -11.3869   -0.2532    4.5087 O   0  0  0  0  0  0
  -13.9176   -2.2489    4.4164 C   0  0  0  0  0  0
  -14.0871   -1.7727    3.3043 O   0  0  0  0  0  0
  -13.6804   -3.5532    4.6127 O   0  0  0  0  0  0
  -10.7377   -2.0257   11.1367 O   0  0  0  0  0  0
  -11.4281   -2.0193   12.3373 C   0  0  0  0  0  0
  -12.6205   -1.7682   12.4536 O   0  0  0  0  0  0
  -10.5278   -2.3666   13.5303 C   0  0  0  0  0  0
  -10.9044   -3.6661   14.3074 C   0  0  0  0  0  0
  -12.1983   -3.6606   15.1418 C   0  0  0  0  0  0
  -11.9423   -3.6272   16.6209 C   0  0  0  0  0  0
  -10.9401   -3.1801   17.1617 O   0  0  0  0  0  0
  -12.9616   -4.1360   17.3297 O   0  0  0  0  0  0
  -10.9231   -4.9384   13.4511 C   0  0  0  0  0  0
  -10.1792   -5.8786   13.6492 O   0  0  0  0  0  0
  -11.8983   -4.9958   12.5200 O   0  0  0  0  0  0
  -13.5787   -8.8830   14.8961 H   0  0  0  0  0  0
  -13.2142   -9.1800   16.4453 H   0  0  0  0  0  0
  -12.8019   -6.6537   12.8273 H   0  0  0  0  0  0
  -14.0926   -4.0791   13.7536 H   0  0  0  0  0  0
  -14.5753   -6.0930    8.6338 H   0  0  0  0  0  0
  -11.9307   -0.6220    3.7864 H   0  0  0  0  0  0
  -13.8162   -4.1195    3.8129 H   0  0  0  0  0  0
  -13.7814   -3.9239   16.8356 H   0  0  0  0  0  0
  -12.5504   -4.2609   12.5494 H   0  0  0  0  0  0
  1  2  1  0  0  0
  2  3  1  0  0  0
  3  4  1  0  0  0
  4  5  1  0  0  0
  5  6  1  0  0  0
  5  7  1  0  0  0
  7  8  1  0  0  0
  7 39  1  0  0  0
  8  9  1  0  0  0
  8 27  1  0  0  0
  9 10  1  0  0  0
 10 11  1  0  0  0
 10 12  1  0  0  0
 12 13  1  0  0  0
 13 14  1  0  0  0
 13 26  1  0  0  0
 14 15  1  0  0  0
 15 16  1  0  0  0
 16 17  1  0  0  0
 17 18  1  0  0  0
 18 19  1  0  0  0
 18 25  1  0  0  0
 19 20  1  0  0  0
 20 21  1  0  0  0
 20 24  1  0  0  0
 21 22  1  0  0  0
 21 23  1  0  0  0
 23 51  1  0  0  0
 23 52  1  0  0  0
 24 53  1  0  0  0
 25 54  1  0  0  0
 26 55  1  0  0  0
 27 28  1  0  0  0
 28 29  2  0  0  0
 28 30  1  0  0  0
 30 31  1  0  0  0
 31 32  1  0  0  0
 31 36  1  0  0  0
 32 33  1  0  0  0
 33 34  2  0  0  0
 33 35  1  0  0  0
 35 56  1  0  0  0
 36 37  2  0  0  0
 36 38  1  0  0  0
 38 57  1  0  0  0
 39 40  1  0  0  0
 40 41  2  0  0  0
 40 42  1  0  0  0
 42 43  1  0  0  0
 43 44  1  0  0  0
 43 48  1  0  0  0
 44 45  1  0  0  0
 45 46  2  0  0  0
 45 47  1  0  0  0
 47 58  1  0  0  0
 48 49  2  0  0  0
 48 50  1  0  0  0
 50 59  1  0  0  0
M  END
>  <AUTHOR>
    GENERATED BY OPEN BABEL 2.4.1

>  <CHROM.1>
-62.81076154,-161.92115279,-138.88028768,179.53032880,141.88123445,130.10382763
-160.38085509,50.49853801,93.99859307,112.23116455,-144.04046473,66.90159198
-62.90703239,-58.15246756,-153.08193727,-166.17857800,-93.73028109,75.51791953
-165.48362025,-160.47088431,-50.58127809,105.18231006,-5.68646627,-104.45983443
150.85875036,94.96707366,31.35465835,-153.24479795,-100.03519003,-1.83742534
167.08314439,-5.61752394,-117.37263401,-69.65245373,-107.72706153,117.45078592
25.40500799,-32.80168621,-6.07563388,-12.53648111,-3.64467913,10.77339149
-1.49437635,1.14204905,2.01351248

>  <COMPND>
    UNNAMED

>  <MASTER>
        0    0    0    0    0    0    0    0  109    0  109    0

>  <Name>
FB1.pdb

>  <RI>
0

>  <Rbt.Current_Directory>
/home/fc/tossine/F10/p3/0_clust01

>  <Rbt.Executable>
rbdock/0.1.0

>  <Rbt.Library>
librxdock.so/0.1.0

>  <Rbt.Parameter_File>
/cluster/rxdock/data/scripts/dock.prm

>  <Rbt.Receptor>
rx_0.prm

>  <SCORE>
45.1524

>  <SCORE.INTER>
12.8924

>  <SCORE.INTER.CONST>
1

>  <SCORE.INTER.POLAR>
-1.99025

>  <SCORE.INTER.REPUL>
1.81822

>  <SCORE.INTER.ROT>
32

>  <SCORE.INTER.VDW>
-26.8319

>  <SCORE.INTER.norm>
0.257847

>  <SCORE.INTRA>
30.9901

>  <SCORE.INTRA.DIHEDRAL>
55.8567

>  <SCORE.INTRA.DIHEDRAL.0>
47.3121

>  <SCORE.INTRA.POLAR>
0.081958

>  <SCORE.INTRA.POLAR.0>
-1.47808

>  <SCORE.INTRA.REPUL>
0

>  <SCORE.INTRA.REPUL.0>
0

>  <SCORE.INTRA.VDW>
2.78307

>  <SCORE.INTRA.VDW.0>
-2.78316

>  <SCORE.INTRA.norm>
0.619802

>  <SCORE.RESTR>
1.26995

>  <SCORE.RESTR.CAVITY>
1.26995

>  <SCORE.RESTR.norm>
0.0253991

>  <SCORE.SYSTEM>
0

>  <SCORE.SYSTEM.CONST>
0

>  <SCORE.SYSTEM.DIHEDRAL>
0

>  <SCORE.SYSTEM.norm>
0

>  <SCORE.heavy>
50

>  <SCORE.norm>
0.903048

$$$$
