FB1.pdb
  RxDock  10062016393D
librxdock.so/0.1.0
 59 58  0  0  0  0  0  0  0  0999 V2000
  -13.3218   -1.8899   12.4482 C   0  0  0  0  0  0
  -13.4968   -3.3831   12.1814 C   0  0  0  0  0  0
  -14.3998   -3.6421   10.9642 C   0  0  0  0  0  0
  -13.7486   -3.2438    9.6162 C   0  0  0  0  0  0
  -12.5742   -4.1727    9.1489 C   0  0  0  0  0  0
  -13.1343   -5.1842    8.1223 C   0  0  0  0  0  0
  -11.3395   -3.3782    8.5470 C   0  0  0  0  0  0
  -11.6700   -2.1861    7.5293 C   0  0  0  0  0  0
  -12.7727   -1.0643    7.7611 C   0  0  0  0  0  0
  -13.9657   -1.0103    6.6230 C   0  0  0  0  0  0
  -15.1641   -0.2674    7.2112 C   0  0  0  0  0  0
  -13.5703   -0.3617    5.2202 C   0  0  0  0  0  0
  -14.2986   -0.7157    3.8192 C   0  0  0  0  0  0
  -14.5959   -2.1891    3.3756 C   0  0  0  0  0  0
  -13.6650   -3.3542    3.9457 C   0  0  0  0  0  0
  -14.1529   -4.4691    4.9524 C   0  0  0  0  0  0
  -14.6580   -5.8288    4.4013 C   0  0  0  0  0  0
  -14.5390   -6.0466    2.8432 C   0  0  0  0  0  0
  -14.4569   -7.5016    2.3650 C   0  0  0  0  0  0
  -13.4178   -7.8585    1.2644 C   0  0  0  0  0  0
  -13.5373   -7.2497   -0.1640 C   0  0  0  0  0  0
  -13.8772   -5.7679   -0.2427 C   0  0  0  0  0  0
  -12.3406   -7.5597   -0.9692 N   0  0  0  0  0  0
  -12.1542   -7.3655    1.7782 O   0  0  0  0  0  0
  -15.6709   -5.4271    2.2229 O   0  0  0  0  0  0
  -15.5861   -0.0815    3.9014 O   0  0  0  0  0  0
  -10.4323   -1.4439    7.3571 O   0  0  0  0  0  0
  -10.2579   -0.3459    8.1377 C   0  0  0  0  0  0
  -10.9618    0.6459    8.1518 O   0  0  0  0  0  0
   -9.1002   -0.5991    9.0635 C   0  0  0  0  0  0
   -9.2762    0.0839   10.4292 C   0  0  0  0  0  0
   -9.0259    1.5962   10.3675 C   0  0  0  0  0  0
   -8.9186    2.1879   11.7538 C   0  0  0  0  0  0
   -8.1043    3.0516   12.0614 O   0  0  0  0  0  0
   -9.8043    1.6781   12.6224 O   0  0  0  0  0  0
  -10.7247   -0.1918   10.8552 C   0  0  0  0  0  0
  -11.1648   -1.3175   11.0332 O   0  0  0  0  0  0
  -11.4860    0.9052   10.9693 O   0  0  0  0  0  0
  -10.4051   -2.9508    9.6166 O   0  0  0  0  0  0
   -9.8277   -3.9241   10.4151 C   0  0  0  0  0  0
   -8.6309   -4.1792   10.4465 O   0  0  0  0  0  0
  -10.8619   -4.6640   11.2736 C   0  0  0  0  0  0
  -10.5910   -6.1837   11.5008 C   0  0  0  0  0  0
   -9.8331   -6.9551   10.4049 C   0  0  0  0  0  0
  -10.7192   -7.3879    9.2727 C   0  0  0  0  0  0
  -11.8322   -7.8827    9.3867 O   0  0  0  0  0  0
  -10.1670   -7.1574    8.0718 O   0  0  0  0  0  0
   -9.9184   -6.5186   12.8379 C   0  0  0  0  0  0
  -10.0545   -5.8367   13.8345 O   0  0  0  0  0  0
   -9.2443   -7.6872   12.8707 O   0  0  0  0  0  0
  -11.5106   -7.2449   -0.4688 H   0  0  0  0  0  0
  -12.3647   -6.9947   -1.8211 H   0  0  0  0  0  0
  -12.4049   -6.6870    2.4401 H   0  0  0  0  0  0
  -16.4768   -5.8638    2.5552 H   0  0  0  0  0  0
  -15.6033    0.4605    4.7079 H   0  0  0  0  0  0
   -9.8276    2.1123   13.4967 H   0  0  0  0  0  0
  -12.4599    0.7309   10.9634 H   0  0  0  0  0  0
  -10.7753   -7.5393    7.4044 H   0  0  0  0  0  0
   -8.6975   -7.8339   13.6743 H   0  0  0  0  0  0
  1  2  1  0  0  0
  2  3  1  0  0  0
  3  4  1  0  0  0
  4  5  1  0  0  0
  5  6  1  0  0  0
  5  7  1  0  0  0
  7  8  1  0  0  0
  7 39  1  0  0  0
  8  9  1  0  0  0
  8 27  1  0  0  0
  9 10  1  0  0  0
 10 11  1  0  0  0
 10 12  1  0  0  0
 12 13  1  0  0  0
 13 14  1  0  0  0
 13 26  1  0  0  0
 14 15  1  0  0  0
 15 16  1  0  0  0
 16 17  1  0  0  0
 17 18  1  0  0  0
 18 19  1  0  0  0
 18 25  1  0  0  0
 19 20  1  0  0  0
 20 21  1  0  0  0
 20 24  1  0  0  0
 21 22  1  0  0  0
 21 23  1  0  0  0
 23 51  1  0  0  0
 23 52  1  0  0  0
 24 53  1  0  0  0
 25 54  1  0  0  0
 26 55  1  0  0  0
 27 28  1  0  0  0
 28 29  2  0  0  0
 28 30  1  0  0  0
 30 31  1  0  0  0
 31 32  1  0  0  0
 31 36  1  0  0  0
 32 33  1  0  0  0
 33 34  2  0  0  0
 33 35  1  0  0  0
 35 56  1  0  0  0
 36 37  2  0  0  0
 36 38  1  0  0  0
 38 57  1  0  0  0
 39 40  1  0  0  0
 40 41  2  0  0  0
 40 42  1  0  0  0
 42 43  1  0  0  0
 43 44  1  0  0  0
 43 48  1  0  0  0
 44 45  1  0  0  0
 45 46  2  0  0  0
 45 47  1  0  0  0
 47 58  1  0  0  0
 48 49  2  0  0  0
 48 50  1  0  0  0
 50 59  1  0  0  0
M  END
>  <AUTHOR>
    GENERATED BY OPEN BABEL 2.4.1

>  <CHROM.1>
69.72649585,70.88914487,98.33502679,-44.13865976,46.44366819,59.36755111
-119.78233782,-95.56616688,160.31403306,154.08660859,-46.50596223,-26.28861397
7.05767164,112.20212957,93.63009491,4.75109322,154.95700503,-136.32987259
-61.34664130,-64.21318268,43.21022643,-21.48003798,-54.79618169,-61.17520527
-146.87179129,-75.56501558,-168.03614331,61.13625199,139.75258716,-173.29651058
161.89944194,114.82964068,144.19096006,-29.45501143,-81.86194260,28.26901282
-43.83067246,175.17524298,170.67331807,-11.95000475,-3.32728512,7.82647808
0.54821046,-1.16862026,0.15134368

>  <COMPND>
    UNNAMED

>  <MASTER>
        0    0    0    0    0    0    0    0  109    0  109    0

>  <Name>
FB1.pdb

>  <RI>
0

>  <Rbt.Current_Directory>
/home/fc/tossine/F10/p3/0_clust01

>  <Rbt.Executable>
rbdock/0.1.0

>  <Rbt.Library>
librxdock.so/0.1.0

>  <Rbt.Parameter_File>
/cluster/rxdock/data/scripts/dock.prm

>  <Rbt.Receptor>
rx_1.prm

>  <SCORE>
77.4709

>  <SCORE.INTER>
14.1451

>  <SCORE.INTER.CONST>
1

>  <SCORE.INTER.POLAR>
-2.52097

>  <SCORE.INTER.REPUL>
0.541235

>  <SCORE.INTER.ROT>
32

>  <SCORE.INTER.VDW>
-17.3898

>  <SCORE.INTER.norm>
0.282901

>  <SCORE.INTRA>
58.4999

>  <SCORE.INTRA.DIHEDRAL>
75.6637

>  <SCORE.INTRA.DIHEDRAL.0>
47.3121

>  <SCORE.INTRA.POLAR>
1.45414

>  <SCORE.INTRA.POLAR.0>
-1.47808

>  <SCORE.INTRA.REPUL>
0

>  <SCORE.INTRA.REPUL.0>
0

>  <SCORE.INTRA.VDW>
15.724

>  <SCORE.INTRA.VDW.0>
-2.78316

>  <SCORE.INTRA.norm>
1.17

>  <SCORE.RESTR>
4.82595

>  <SCORE.RESTR.CAVITY>
4.82595

>  <SCORE.RESTR.norm>
0.0965189

>  <SCORE.SYSTEM>
0

>  <SCORE.SYSTEM.CONST>
0

>  <SCORE.SYSTEM.DIHEDRAL>
0

>  <SCORE.SYSTEM.norm>
0

>  <SCORE.heavy>
50

>  <SCORE.norm>
1.54942

$$$$
