FB1.pdb
  RxDock  10062017473D
librxdock.so/0.1.0
 59 58  0  0  0  0  0  0  0  0999 V2000
   -3.5991  -11.8702    3.6076 C   0  0  0  0  0  0
   -4.9512  -11.1627    3.5572 C   0  0  0  0  0  0
   -4.8618   -9.7249    4.0949 C   0  0  0  0  0  0
   -4.5218   -8.6780    3.0049 C   0  0  0  0  0  0
   -3.1216   -8.8641    2.3228 C   0  0  0  0  0  0
   -2.7711   -7.5599    1.5698 C   0  0  0  0  0  0
   -1.9693   -9.2594    3.3397 C   0  0  0  0  0  0
   -0.6874  -10.0022    2.7306 C   0  0  0  0  0  0
   -0.1529   -9.8332    1.2427 C   0  0  0  0  0  0
   -1.0702  -10.5640    0.0827 C   0  0  0  0  0  0
   -1.7520   -9.4803   -0.7508 C   0  0  0  0  0  0
   -0.3060  -11.5791   -0.8819 C   0  0  0  0  0  0
    0.2914  -11.1784   -2.3314 C   0  0  0  0  0  0
   -0.5448  -10.3879   -3.3954 C   0  0  0  0  0  0
    0.1406  -10.0475   -4.7967 C   0  0  0  0  0  0
   -0.5478   -9.2043   -5.9411 C   0  0  0  0  0  0
   -0.5004   -9.7190   -7.4040 C   0  0  0  0  0  0
    0.8427   -9.4745   -8.1948 C   0  0  0  0  0  0
    0.9052   -8.2035   -9.0511 C   0  0  0  0  0  0
    2.1552   -7.9799   -9.9487 C   0  0  0  0  0  0
    2.3754   -6.6195  -10.6741 C   0  0  0  0  0  0
    1.1978   -6.0795  -11.4735 C   0  0  0  0  0  0
    2.8881   -5.6014   -9.7376 N   0  0  0  0  0  0
    3.2837   -8.1115   -9.0470 O   0  0  0  0  0  0
    1.9136   -9.4363   -7.2454 O   0  0  0  0  0  0
    1.4236  -10.3399   -2.0455 O   0  0  0  0  0  0
    0.4395   -9.6168    3.5637 O   0  0  0  0  0  0
    1.4023  -10.5525    3.7705 C   0  0  0  0  0  0
    1.5689  -11.5686    3.1231 O   0  0  0  0  0  0
    2.3009  -10.0743    4.8775 C   0  0  0  0  0  0
    3.3790  -11.1047    5.2495 C   0  0  0  0  0  0
    4.3816  -10.5630    6.2765 C   0  0  0  0  0  0
    5.5156   -9.8307    5.5974 C   0  0  0  0  0  0
    6.0040   -8.7906    6.0255 O   0  0  0  0  0  0
    5.9426  -10.4295    4.4758 O   0  0  0  0  0  0
    2.6278  -12.3091    5.8335 C   0  0  0  0  0  0
    2.5304  -12.5165    7.0334 O   0  0  0  0  0  0
    2.1263  -13.1465    4.9151 O   0  0  0  0  0  0
   -1.5891   -8.1069    4.1924 O   0  0  0  0  0  0
   -1.2266   -8.3507    5.5066 C   0  0  0  0  0  0
   -0.5595   -7.5915    6.1972 O   0  0  0  0  0  0
   -1.7578   -9.6960    6.0188 C   0  0  0  0  0  0
   -1.9154   -9.8172    7.5664 C   0  0  0  0  0  0
   -2.4822   -8.6080    8.3326 C   0  0  0  0  0  0
   -1.8761   -8.4411    9.6962 C   0  0  0  0  0  0
   -2.2899   -8.9512   10.7282 O   0  0  0  0  0  0
   -0.7822   -7.6644    9.6800 O   0  0  0  0  0  0
   -2.6926  -11.0541    8.0333 C   0  0  0  0  0  0
   -3.8895  -11.1833    7.8675 O   0  0  0  0  0  0
   -1.9418  -12.0491    8.5504 O   0  0  0  0  0  0
    3.8564   -5.8185   -9.5054 H   0  0  0  0  0  0
    2.3803   -5.6851   -8.8541 H   0  0  0  0  0  0
    3.1006   -7.4710   -8.3276 H   0  0  0  0  0  0
    1.9527  -10.3007   -6.7961 H   0  0  0  0  0  0
    2.0514  -10.8543   -1.5111 H   0  0  0  0  0  0
    6.7119  -10.0089    4.0461 H   0  0  0  0  0  0
    2.2810  -12.8681    3.9784 H   0  0  0  0  0  0
   -0.4761   -7.5901   10.6085 H   0  0  0  0  0  0
   -2.4261  -12.8816    8.7470 H   0  0  0  0  0  0
  1  2  1  0  0  0
  2  3  1  0  0  0
  3  4  1  0  0  0
  4  5  1  0  0  0
  5  6  1  0  0  0
  5  7  1  0  0  0
  7  8  1  0  0  0
  7 39  1  0  0  0
  8  9  1  0  0  0
  8 27  1  0  0  0
  9 10  1  0  0  0
 10 11  1  0  0  0
 10 12  1  0  0  0
 12 13  1  0  0  0
 13 14  1  0  0  0
 13 26  1  0  0  0
 14 15  1  0  0  0
 15 16  1  0  0  0
 16 17  1  0  0  0
 17 18  1  0  0  0
 18 19  1  0  0  0
 18 25  1  0  0  0
 19 20  1  0  0  0
 20 21  1  0  0  0
 20 24  1  0  0  0
 21 22  1  0  0  0
 21 23  1  0  0  0
 23 51  1  0  0  0
 23 52  1  0  0  0
 24 53  1  0  0  0
 25 54  1  0  0  0
 26 55  1  0  0  0
 27 28  1  0  0  0
 28 29  2  0  0  0
 28 30  1  0  0  0
 30 31  1  0  0  0
 31 32  1  0  0  0
 31 36  1  0  0  0
 32 33  1  0  0  0
 33 34  2  0  0  0
 33 35  1  0  0  0
 35 56  1  0  0  0
 36 37  2  0  0  0
 36 38  1  0  0  0
 38 57  1  0  0  0
 39 40  1  0  0  0
 40 41  2  0  0  0
 40 42  1  0  0  0
 42 43  1  0  0  0
 43 44  1  0  0  0
 43 48  1  0  0  0
 44 45  1  0  0  0
 45 46  2  0  0  0
 45 47  1  0  0  0
 47 58  1  0  0  0
 48 49  2  0  0  0
 48 50  1  0  0  0
 50 59  1  0  0  0
M  END
>  <AUTHOR>
    GENERATED BY OPEN BABEL 2.4.1

>  <CHROM.1>
89.62315305,-62.86443343,-164.62002609,157.26382980,28.16566013,144.80008602
-73.02619831,145.12479279,110.53925061,-95.22523610,-48.10331374,-179.82442391
59.62371466,-177.13526971,-133.22184043,-79.22450796,-93.90382100,-174.63023370
61.55024992,-170.88239362,-50.18488921,-54.51579348,71.87571122,16.42828624
176.51031464,174.17294941,-86.96102510,-100.41342658,139.85704273,-176.31026303
-1.70454827,158.99881546,-156.37875582,41.13665781,-145.26809455,-70.60657541
-89.15985077,178.22303940,-172.84081373,0.07007694,-9.65754645,1.51665058
1.70179683,-0.08919264,1.69652517

>  <COMPND>
    UNNAMED

>  <MASTER>
        0    0    0    0    0    0    0    0  109    0  109    0

>  <Name>
FB1.pdb

>  <RI>
0

>  <Rbt.Current_Directory>
/home/fc/tossine/F10/p3/0_clust01

>  <Rbt.Executable>
rbdock/0.1.0

>  <Rbt.Library>
librxdock.so/0.1.0

>  <Rbt.Parameter_File>
/cluster/rxdock/data/scripts/dock.prm

>  <Rbt.Receptor>
rx_3.prm

>  <SCORE>
17.5924

>  <SCORE.INTER>
0.0162936

>  <SCORE.INTER.CONST>
1

>  <SCORE.INTER.POLAR>
-1.2079

>  <SCORE.INTER.REPUL>
0.26438

>  <SCORE.INTER.ROT>
32

>  <SCORE.INTER.VDW>
-34.5988

>  <SCORE.INTER.norm>
0.000325872

>  <SCORE.INTRA>
15.5074

>  <SCORE.INTRA.DIHEDRAL>
17.0058

>  <SCORE.INTRA.DIHEDRAL.0>
47.3121

>  <SCORE.INTRA.POLAR>
1.04839

>  <SCORE.INTRA.POLAR.0>
-1.47808

>  <SCORE.INTRA.REPUL>
0.0172566

>  <SCORE.INTRA.REPUL.0>
0

>  <SCORE.INTRA.VDW>
3.35365

>  <SCORE.INTRA.VDW.0>
-2.78316

>  <SCORE.INTRA.norm>
0.310147

>  <SCORE.RESTR>
2.06873

>  <SCORE.RESTR.CAVITY>
2.06873

>  <SCORE.RESTR.norm>
0.0413747

>  <SCORE.SYSTEM>
0

>  <SCORE.SYSTEM.CONST>
0

>  <SCORE.SYSTEM.DIHEDRAL>
0

>  <SCORE.SYSTEM.norm>
0

>  <SCORE.heavy>
50

>  <SCORE.norm>
0.351848

$$$$
