FB1.pdb
  RxDock  10062018253D
librxdock.so/0.1.0
 59 58  0  0  0  0  0  0  0  0999 V2000
    5.1543    0.2993   -6.8629 C   0  0  0  0  0  0
    4.0720    0.0154   -5.8239 C   0  0  0  0  0  0
    2.7088    0.5835   -6.2519 C   0  0  0  0  0  0
    2.0955   -0.1397   -7.4769 C   0  0  0  0  0  0
    2.2375   -1.7017   -7.4625 C   0  0  0  0  0  0
    0.8693   -2.3101   -7.0773 C   0  0  0  0  0  0
    2.7596   -2.3028   -8.8351 C   0  0  0  0  0  0
    2.6163   -3.8857   -9.0354 C   0  0  0  0  0  0
    2.1233   -4.5983  -10.3686 C   0  0  0  0  0  0
    2.4881   -6.2033  -10.4798 C   0  0  0  0  0  0
    3.8941   -6.4208   -9.9230 C   0  0  0  0  0  0
    1.4707   -7.2064   -9.7703 C   0  0  0  0  0  0
    0.0068   -7.5766  -10.3522 C   0  0  0  0  0  0
   -1.2883   -7.5111   -9.4721 C   0  0  0  0  0  0
   -1.5569   -8.6913   -8.4309 C   0  0  0  0  0  0
   -2.1554   -8.4812   -6.9844 C   0  0  0  0  0  0
   -3.6626   -8.1507   -6.8212 C   0  0  0  0  0  0
   -4.0802   -6.6428   -7.0234 C   0  0  0  0  0  0
   -5.5750   -6.3748   -7.2387 C   0  0  0  0  0  0
   -5.9918   -5.3796   -8.3586 C   0  0  0  0  0  0
   -5.2778   -4.0028   -8.4998 C   0  0  0  0  0  0
   -4.8845   -3.5851   -9.9099 C   0  0  0  0  0  0
   -6.0507   -2.9390   -7.8310 N   0  0  0  0  0  0
   -5.7067   -6.0792   -9.5968 O   0  0  0  0  0  0
   -3.6470   -5.9067   -5.8744 O   0  0  0  0  0  0
   -0.2156   -6.6375  -11.4176 O   0  0  0  0  0  0
    3.9350   -4.4469   -8.7939 O   0  0  0  0  0  0
    4.5755   -4.0527   -7.6627 C   0  0  0  0  0  0
    4.1627   -4.1694   -6.5245 O   0  0  0  0  0  0
    5.9356   -3.5351   -8.0415 C   0  0  0  0  0  0
    6.9821   -4.6548   -8.1577 C   0  0  0  0  0  0
    6.5943   -5.7177   -9.1937 C   0  0  0  0  0  0
    6.4127   -7.0704   -8.5452 C   0  0  0  0  0  0
    7.0062   -8.0809   -8.9063 O   0  0  0  0  0  0
    5.5369   -7.0627   -7.5294 O   0  0  0  0  0  0
    8.2902   -3.9681   -8.5740 C   0  0  0  0  0  0
    9.3878   -4.3262   -8.1746 O   0  0  0  0  0  0
    8.1269   -2.9073   -9.3764 O   0  0  0  0  0  0
    2.2190   -1.5466   -9.9909 O   0  0  0  0  0  0
    2.5654   -1.9572  -11.2674 C   0  0  0  0  0  0
    3.6590   -2.4092  -11.5807 O   0  0  0  0  0  0
    1.4154   -1.7847  -12.2684 C   0  0  0  0  0  0
    0.6511   -0.4265  -12.1946 C   0  0  0  0  0  0
    1.4779    0.8718  -12.2333 C   0  0  0  0  0  0
    1.7347    1.4444  -10.8693 C   0  0  0  0  0  0
    2.8343    1.5985  -10.3555 O   0  0  0  0  0  0
    0.6043    1.8054  -10.2431 O   0  0  0  0  0  0
   -0.4792   -0.2743  -13.2201 C   0  0  0  0  0  0
   -1.4817   -0.9608  -13.2044 O   0  0  0  0  0  0
   -0.3408    0.7507  -14.0870 O   0  0  0  0  0  0
   -5.6067   -2.0397   -8.0116 H   0  0  0  0  0  0
   -5.9788   -3.0698   -6.8194 H   0  0  0  0  0  0
   -6.2816   -6.8730   -9.5697 H   0  0  0  0  0  0
   -3.9312   -4.9802   -5.9818 H   0  0  0  0  0  0
    0.3998   -6.8500  -12.1391 H   0  0  0  0  0  0
    5.3840   -6.1905   -7.1178 H   0  0  0  0  0  0
    7.3367   -2.9596   -9.9695 H   0  0  0  0  0  0
    0.8659    2.4088   -9.5159 H   0  0  0  0  0  0
    0.5768    0.9164  -14.3980 H   0  0  0  0  0  0
  1  2  1  0  0  0
  2  3  1  0  0  0
  3  4  1  0  0  0
  4  5  1  0  0  0
  5  6  1  0  0  0
  5  7  1  0  0  0
  7  8  1  0  0  0
  7 39  1  0  0  0
  8  9  1  0  0  0
  8 27  1  0  0  0
  9 10  1  0  0  0
 10 11  1  0  0  0
 10 12  1  0  0  0
 12 13  1  0  0  0
 13 14  1  0  0  0
 13 26  1  0  0  0
 14 15  1  0  0  0
 15 16  1  0  0  0
 16 17  1  0  0  0
 17 18  1  0  0  0
 18 19  1  0  0  0
 18 25  1  0  0  0
 19 20  1  0  0  0
 20 21  1  0  0  0
 20 24  1  0  0  0
 21 22  1  0  0  0
 21 23  1  0  0  0
 23 51  1  0  0  0
 23 52  1  0  0  0
 24 53  1  0  0  0
 25 54  1  0  0  0
 26 55  1  0  0  0
 27 28  1  0  0  0
 28 29  2  0  0  0
 28 30  1  0  0  0
 30 31  1  0  0  0
 31 32  1  0  0  0
 31 36  1  0  0  0
 32 33  1  0  0  0
 33 34  2  0  0  0
 33 35  1  0  0  0
 35 56  1  0  0  0
 36 37  2  0  0  0
 36 38  1  0  0  0
 38 57  1  0  0  0
 39 40  1  0  0  0
 40 41  2  0  0  0
 40 42  1  0  0  0
 42 43  1  0  0  0
 43 44  1  0  0  0
 43 48  1  0  0  0
 44 45  1  0  0  0
 45 46  2  0  0  0
 45 47  1  0  0  0
 47 58  1  0  0  0
 48 49  2  0  0  0
 48 50  1  0  0  0
 50 59  1  0  0  0
M  END
>  <AUTHOR>
    GENERATED BY OPEN BABEL 2.4.1

>  <CHROM.1>
68.05830123,41.90441316,103.74860840,-166.23823746,136.89730863,-179.11309890
162.39115330,49.10807299,-39.60313110,74.35108769,-130.06568177,-76.97676763
68.59577258,141.06648653,73.63546801,-81.85442349,164.05092530,-135.69035640
-178.03901855,-46.65114932,135.19707807,61.64757590,-174.85954376,57.69186281
-85.09272362,58.59040675,-117.63154920,143.84905610,-125.20239366,-21.87826064
-30.70315628,-35.99938443,44.97320716,51.47522423,-97.61258019,65.80071506
117.94871166,-162.55554136,38.06339923,1.46988440,-3.68097243,-9.17068530
0.20032779,-0.06257545,-0.33833734

>  <COMPND>
    UNNAMED

>  <MASTER>
        0    0    0    0    0    0    0    0  109    0  109    0

>  <Name>
FB1.pdb

>  <RI>
0

>  <Rbt.Current_Directory>
/home/fc/tossine/F10/p3/0_clust01

>  <Rbt.Executable>
rbdock/0.1.0

>  <Rbt.Library>
librxdock.so/0.1.0

>  <Rbt.Parameter_File>
/cluster/rxdock/data/scripts/dock.prm

>  <Rbt.Receptor>
rx_4.prm

>  <SCORE>
152.271

>  <SCORE.INTER>
81.2777

>  <SCORE.INTER.CONST>
1

>  <SCORE.INTER.POLAR>
-1.17465

>  <SCORE.INTER.REPUL>
1.34744

>  <SCORE.INTER.ROT>
32

>  <SCORE.INTER.VDW>
41.1343

>  <SCORE.INTER.norm>
1.62555

>  <SCORE.INTRA>
55.3172

>  <SCORE.INTRA.DIHEDRAL>
57.5079

>  <SCORE.INTRA.DIHEDRAL.0>
47.3121

>  <SCORE.INTRA.POLAR>
1.47808

>  <SCORE.INTRA.POLAR.0>
-1.47808

>  <SCORE.INTRA.REPUL>
0

>  <SCORE.INTRA.REPUL.0>
0

>  <SCORE.INTRA.VDW>
21.5378

>  <SCORE.INTRA.VDW.0>
-2.78316

>  <SCORE.INTRA.norm>
1.10634

>  <SCORE.RESTR>
15.6762

>  <SCORE.RESTR.CAVITY>
15.6762

>  <SCORE.RESTR.norm>
0.313523

>  <SCORE.SYSTEM>
0

>  <SCORE.SYSTEM.CONST>
0

>  <SCORE.SYSTEM.DIHEDRAL>
0

>  <SCORE.SYSTEM.norm>
0

>  <SCORE.heavy>
50

>  <SCORE.norm>
3.04542

$$$$
