FB1.pdb
  RxDock  10062018243D
librxdock.so/0.1.0
 59 58  0  0  0  0  0  0  0  0999 V2000
    7.8316   -1.4599   -8.9527 C   0  0  0  0  0  0
    7.8161   -1.1434   -7.4591 C   0  0  0  0  0  0
    7.2436   -2.3091   -6.6359 C   0  0  0  0  0  0
    6.8264   -3.5271   -7.4974 C   0  0  0  0  0  0
    6.1333   -3.1686   -8.8582 C   0  0  0  0  0  0
    6.2973   -4.3698   -9.8178 C   0  0  0  0  0  0
    4.6053   -2.7693   -8.7047 C   0  0  0  0  0  0
    3.7768   -3.5015   -7.5455 C   0  0  0  0  0  0
    2.7294   -2.7926   -6.5818 C   0  0  0  0  0  0
    3.3909   -1.8298   -5.4170 C   0  0  0  0  0  0
    3.0295   -0.3777   -5.7251 C   0  0  0  0  0  0
    2.9913   -2.1725   -3.9111 C   0  0  0  0  0  0
    2.8684   -3.6755   -3.3243 C   0  0  0  0  0  0
    4.0692   -4.6826   -3.3353 C   0  0  0  0  0  0
    4.0167   -5.9126   -4.3519 C   0  0  0  0  0  0
    3.9013   -7.4250   -3.9117 C   0  0  0  0  0  0
    2.7566   -8.3026   -4.4837 C   0  0  0  0  0  0
    3.0826   -9.1229   -5.7913 C   0  0  0  0  0  0
    1.8778   -9.6483   -6.5818 C   0  0  0  0  0  0
    0.6940  -10.2749   -5.7916 C   0  0  0  0  0  0
    0.9249  -10.9002   -4.3841 C   0  0  0  0  0  0
    2.3000  -11.5003   -4.1267 C   0  0  0  0  0  0
    0.5574   -9.9477   -3.3192 N   0  0  0  0  0  0
   -0.2223   -9.1731   -5.5673 O   0  0  0  0  0  0
    3.8631   -8.2879   -6.6535 O   0  0  0  0  0  0
    2.5351   -3.5043   -1.9364 O   0  0  0  0  0  0
    3.0134   -4.5543   -8.1945 O   0  0  0  0  0  0
    3.6382   -5.7466   -8.3769 C   0  0  0  0  0  0
    4.7908   -6.0064   -8.0880 O   0  0  0  0  0  0
    2.6349   -6.7338   -8.9062 C   0  0  0  0  0  0
    2.7463   -6.9312  -10.4264 C   0  0  0  0  0  0
    1.8026   -6.0101  -11.2104 C   0  0  0  0  0  0
    1.5334   -4.7317  -10.4510 C   0  0  0  0  0  0
    0.7810   -4.6622   -9.4851 O   0  0  0  0  0  0
    2.2000   -3.6728  -10.9339 O   0  0  0  0  0  0
    4.2051   -6.6180  -10.7867 C   0  0  0  0  0  0
    5.1553   -7.2025  -10.2888 O   0  0  0  0  0  0
    4.3556   -5.6124  -11.6597 O   0  0  0  0  0  0
    4.4387   -1.2962   -8.6593 O   0  0  0  0  0  0
    3.5455   -0.7065   -9.5382 C   0  0  0  0  0  0
    3.4822   -0.9519  -10.7357 O   0  0  0  0  0  0
    2.6246    0.3052   -8.8434 C   0  0  0  0  0  0
    1.6614    1.0989   -9.7798 C   0  0  0  0  0  0
    2.2841    1.9980  -10.8634 C   0  0  0  0  0  0
    1.6853    1.7789  -12.2228 C   0  0  0  0  0  0
    1.0446    2.6025  -12.8614 O   0  0  0  0  0  0
    1.9412    0.5532  -12.7048 O   0  0  0  0  0  0
    0.5878    0.2430  -10.4634 C   0  0  0  0  0  0
   -0.5829    0.5654  -10.5096 O   0  0  0  0  0  0
    1.0435   -0.8501  -11.1104 O   0  0  0  0  0  0
    0.4135  -10.4585   -2.4492 H   0  0  0  0  0  0
   -0.3555   -9.5447   -3.5422 H   0  0  0  0  0  0
    0.3279   -8.4751   -5.1533 H   0  0  0  0  0  0
    4.3371   -8.8606   -7.2842 H   0  0  0  0  0  0
    1.6877   -3.0310   -1.8868 H   0  0  0  0  0  0
    1.8225   -2.8023  -10.7032 H   0  0  0  0  0  0
    3.7193   -5.6283  -12.4171 H   0  0  0  0  0  0
    1.7494    0.5832  -13.6659 H   0  0  0  0  0  0
    0.4023   -1.2721  -11.7245 H   0  0  0  0  0  0
  1  2  1  0  0  0
  2  3  1  0  0  0
  3  4  1  0  0  0
  4  5  1  0  0  0
  5  6  1  0  0  0
  5  7  1  0  0  0
  7  8  1  0  0  0
  7 39  1  0  0  0
  8  9  1  0  0  0
  8 27  1  0  0  0
  9 10  1  0  0  0
 10 11  1  0  0  0
 10 12  1  0  0  0
 12 13  1  0  0  0
 13 14  1  0  0  0
 13 26  1  0  0  0
 14 15  1  0  0  0
 15 16  1  0  0  0
 16 17  1  0  0  0
 17 18  1  0  0  0
 18 19  1  0  0  0
 18 25  1  0  0  0
 19 20  1  0  0  0
 20 21  1  0  0  0
 20 24  1  0  0  0
 21 22  1  0  0  0
 21 23  1  0  0  0
 23 51  1  0  0  0
 23 52  1  0  0  0
 24 53  1  0  0  0
 25 54  1  0  0  0
 26 55  1  0  0  0
 27 28  1  0  0  0
 28 29  2  0  0  0
 28 30  1  0  0  0
 30 31  1  0  0  0
 31 32  1  0  0  0
 31 36  1  0  0  0
 32 33  1  0  0  0
 33 34  2  0  0  0
 33 35  1  0  0  0
 35 56  1  0  0  0
 36 37  2  0  0  0
 36 38  1  0  0  0
 38 57  1  0  0  0
 39 40  1  0  0  0
 40 41  2  0  0  0
 40 42  1  0  0  0
 42 43  1  0  0  0
 43 44  1  0  0  0
 43 48  1  0  0  0
 44 45  1  0  0  0
 45 46  2  0  0  0
 45 47  1  0  0  0
 47 58  1  0  0  0
 48 49  2  0  0  0
 48 50  1  0  0  0
 50 59  1  0  0  0
M  END
>  <AUTHOR>
    GENERATED BY OPEN BABEL 2.4.1

>  <CHROM.1>
0.34908134,-39.53207677,157.43859395,-33.13641048,138.30910888,127.12743576
-73.75696184,85.92131213,112.07003103,40.66433825,58.87872643,-108.26141499
60.88284104,-113.52190965,125.47046540,92.31241154,-162.58157667,-42.82537747
159.37867194,-25.29339194,-29.83792048,-53.01632121,161.08512751,-2.52652580
100.34661804,-93.28035338,28.48027438,57.29051163,-75.80472843,158.50202062
-43.04142178,-46.93550529,175.39614036,-61.42955766,130.87692003,133.60187566
115.41778484,-164.10020509,-165.66063293,3.10737266,-4.10244662,-7.97582370
-1.50077088,1.19625024,2.51260700

>  <COMPND>
    UNNAMED

>  <MASTER>
        0    0    0    0    0    0    0    0  109    0  109    0

>  <Name>
FB1.pdb

>  <RI>
0

>  <Rbt.Current_Directory>
/home/fc/tossine/F10/p3/0_clust01

>  <Rbt.Executable>
rbdock/0.1.0

>  <Rbt.Library>
librxdock.so/0.1.0

>  <Rbt.Parameter_File>
/cluster/rxdock/data/scripts/dock.prm

>  <Rbt.Receptor>
rx_4.prm

>  <SCORE>
130.525

>  <SCORE.INTER>
55.8911

>  <SCORE.INTER.CONST>
1

>  <SCORE.INTER.POLAR>
-2.62896

>  <SCORE.INTER.REPUL>
0.517761

>  <SCORE.INTER.ROT>
32

>  <SCORE.INTER.VDW>
24.8408

>  <SCORE.INTER.norm>
1.11782

>  <SCORE.INTRA>
62.0612

>  <SCORE.INTRA.DIHEDRAL>
69.8949

>  <SCORE.INTRA.DIHEDRAL.0>
47.3121

>  <SCORE.INTRA.POLAR>
0.472024

>  <SCORE.INTRA.POLAR.0>
-1.47808

>  <SCORE.INTRA.REPUL>
0.181332

>  <SCORE.INTRA.REPUL.0>
0

>  <SCORE.INTRA.VDW>
24.6022

>  <SCORE.INTRA.VDW.0>
-2.78316

>  <SCORE.INTRA.norm>
1.24122

>  <SCORE.RESTR>
12.5722

>  <SCORE.RESTR.CAVITY>
12.5722

>  <SCORE.RESTR.norm>
0.251445

>  <SCORE.SYSTEM>
0

>  <SCORE.SYSTEM.CONST>
0

>  <SCORE.SYSTEM.DIHEDRAL>
0

>  <SCORE.SYSTEM.norm>
0

>  <SCORE.heavy>
50

>  <SCORE.norm>
2.61049

$$$$
