FB1.pdb
  RxDock  10062017223D
librxdock.so/0.1.0
 59 58  0  0  0  0  0  0  0  0999 V2000
  -14.2686   -5.6500    2.7723 C   0  0  0  0  0  0
  -14.7882   -4.8761    3.9816 C   0  0  0  0  0  0
  -14.8088   -3.3607    3.7218 C   0  0  0  0  0  0
  -14.2961   -2.5219    4.9189 C   0  0  0  0  0  0
  -12.8900   -2.9459    5.4698 C   0  0  0  0  0  0
  -11.8468   -2.7413    4.3471 C   0  0  0  0  0  0
  -12.4656   -2.1696    6.7871 C   0  0  0  0  0  0
  -11.2353   -2.7702    7.6189 C   0  0  0  0  0  0
  -10.4716   -2.0191    8.7939 C   0  0  0  0  0  0
  -11.0085   -0.4924    9.1134 C   0  0  0  0  0  0
  -12.4858   -0.5678    9.4957 C   0  0  0  0  0  0
  -10.2072    0.3151   10.2318 C   0  0  0  0  0  0
  -10.2978    0.0027   11.8169 C   0  0  0  0  0  0
  -10.9160    1.0170   12.8392 C   0  0  0  0  0  0
  -10.7126    2.5783   12.5741 C   0  0  0  0  0  0
   -9.6585    3.1779   11.5622 C   0  0  0  0  0  0
   -8.2714    2.4992   11.4115 C   0  0  0  0  0  0
   -7.4878    2.7851   10.0723 C   0  0  0  0  0  0
   -8.1315    2.2597    8.7831 C   0  0  0  0  0  0
   -7.4090    1.1205    8.0094 C   0  0  0  0  0  0
   -5.9059    1.2549    7.6246 C   0  0  0  0  0  0
   -4.9034    1.1639    8.7666 C   0  0  0  0  0  0
   -5.5555    0.3188    6.5395 N   0  0  0  0  0  0
   -7.4679   -0.0232    8.8995 O   0  0  0  0  0  0
   -7.3204    4.2019    9.9524 O   0  0  0  0  0  0
  -11.1163   -1.1750   11.9153 O   0  0  0  0  0  0
  -11.7185   -3.9971    8.2303 O   0  0  0  0  0  0
  -12.9988   -3.9973    8.6843 C   0  0  0  0  0  0
  -13.6737   -3.0167    8.9342 O   0  0  0  0  0  0
  -13.4864   -5.4190    8.7326 C   0  0  0  0  0  0
  -12.4473   -6.3794    9.3329 C   0  0  0  0  0  0
  -12.3046   -6.2178   10.8517 C   0  0  0  0  0  0
  -11.0199   -5.5054   11.2057 C   0  0  0  0  0  0
  -10.0474   -5.4503   10.4608 O   0  0  0  0  0  0
  -11.0429   -4.9334   12.4186 O   0  0  0  0  0  0
  -12.9388   -7.7948    8.9991 C   0  0  0  0  0  0
  -12.3171   -8.5651    8.2833 O   0  0  0  0  0  0
  -14.1352   -8.1017    9.5190 O   0  0  0  0  0  0
  -12.3016   -0.7191    6.5245 O   0  0  0  0  0  0
  -13.3931   -0.0065    6.0565 C   0  0  0  0  0  0
  -14.5516   -0.2018    6.4004 O   0  0  0  0  0  0
  -12.9938    1.0746    5.0435 C   0  0  0  0  0  0
  -12.6892    0.5698    3.5989 C   0  0  0  0  0  0
  -13.8790    0.3161    2.6554 C   0  0  0  0  0  0
  -14.1021    1.4346    1.6788 C   0  0  0  0  0  0
  -14.5481    1.3145    0.5460 O   0  0  0  0  0  0
  -13.7724    2.6322    2.1862 O   0  0  0  0  0  0
  -11.6727    1.4204    2.8273 C   0  0  0  0  0  0
  -10.9469    2.2325    3.3663 O   0  0  0  0  0  0
  -11.5562    1.1343    1.5136 O   0  0  0  0  0  0
   -6.2567   -0.4193    6.4957 H   0  0  0  0  0  0
   -4.6859   -0.1583    6.7878 H   0  0  0  0  0  0
   -6.9468   -0.7175    8.4438 H   0  0  0  0  0  0
   -6.9709    4.5396   10.7976 H   0  0  0  0  0  0
  -10.7171   -1.8658   11.3603 H   0  0  0  0  0  0
  -10.4362   -4.1770   12.5341 H   0  0  0  0  0  0
  -14.6100   -8.8331    9.0515 H   0  0  0  0  0  0
  -14.1195    2.6546    3.1029 H   0  0  0  0  0  0
  -10.7730    1.5256    1.0667 H   0  0  0  0  0  0
  1  2  1  0  0  0
  2  3  1  0  0  0
  3  4  1  0  0  0
  4  5  1  0  0  0
  5  6  1  0  0  0
  5  7  1  0  0  0
  7  8  1  0  0  0
  7 39  1  0  0  0
  8  9  1  0  0  0
  8 27  1  0  0  0
  9 10  1  0  0  0
 10 11  1  0  0  0
 10 12  1  0  0  0
 12 13  1  0  0  0
 13 14  1  0  0  0
 13 26  1  0  0  0
 14 15  1  0  0  0
 15 16  1  0  0  0
 16 17  1  0  0  0
 17 18  1  0  0  0
 18 19  1  0  0  0
 18 25  1  0  0  0
 19 20  1  0  0  0
 20 21  1  0  0  0
 20 24  1  0  0  0
 21 22  1  0  0  0
 21 23  1  0  0  0
 23 51  1  0  0  0
 23 52  1  0  0  0
 24 53  1  0  0  0
 25 54  1  0  0  0
 26 55  1  0  0  0
 27 28  1  0  0  0
 28 29  2  0  0  0
 28 30  1  0  0  0
 30 31  1  0  0  0
 31 32  1  0  0  0
 31 36  1  0  0  0
 32 33  1  0  0  0
 33 34  2  0  0  0
 33 35  1  0  0  0
 35 56  1  0  0  0
 36 37  2  0  0  0
 36 38  1  0  0  0
 38 57  1  0  0  0
 39 40  1  0  0  0
 40 41  2  0  0  0
 40 42  1  0  0  0
 42 43  1  0  0  0
 43 44  1  0  0  0
 43 48  1  0  0  0
 44 45  1  0  0  0
 45 46  2  0  0  0
 45 47  1  0  0  0
 47 58  1  0  0  0
 48 49  2  0  0  0
 48 50  1  0  0  0
 50 59  1  0  0  0
M  END
>  <AUTHOR>
    GENERATED BY OPEN BABEL 2.4.1

>  <CHROM.1>
-137.31927879,52.53000737,62.41450269,165.49447410,167.69833172,59.89884728
-1.49047242,-37.66144625,59.37422009,-72.94706616,-114.16113840,-34.44298545
55.18795384,-15.19388342,-36.93629460,158.41456104,-64.77265918,-113.14733321
49.13456431,-51.90454548,71.11564209,-175.36356223,-19.38113304,-19.26082768
44.18261208,73.27443122,-105.71319668,116.48161374,-21.59233603,-154.89149132
157.70061545,36.55022354,78.03554802,81.57305938,100.53750766,15.38822797
148.50274585,-42.91715994,-166.54511960,-11.39008825,-1.33371367,7.51746866
3.07628235,-0.91840201,-0.78569019

>  <COMPND>
    UNNAMED

>  <MASTER>
        0    0    0    0    0    0    0    0  109    0  109    0

>  <Name>
FB1.pdb

>  <RI>
0

>  <Rbt.Current_Directory>
/home/fc/tossine/F10/p3/0_clust01

>  <Rbt.Executable>
rbdock/0.1.0

>  <Rbt.Library>
librxdock.so/0.1.0

>  <Rbt.Parameter_File>
/cluster/rxdock/data/scripts/dock.prm

>  <Rbt.Receptor>
rx_2.prm

>  <SCORE>
77.0249

>  <SCORE.INTER>
28.4787

>  <SCORE.INTER.CONST>
1

>  <SCORE.INTER.POLAR>
-2.9334

>  <SCORE.INTER.REPUL>
0.713849

>  <SCORE.INTER.ROT>
32

>  <SCORE.INTER.VDW>
-2.517

>  <SCORE.INTER.norm>
0.569574

>  <SCORE.INTRA>
36.0931

>  <SCORE.INTRA.DIHEDRAL>
44.4098

>  <SCORE.INTRA.DIHEDRAL.0>
47.3121

>  <SCORE.INTRA.POLAR>
1.47808

>  <SCORE.INTRA.POLAR.0>
-1.47808

>  <SCORE.INTRA.REPUL>
0

>  <SCORE.INTRA.REPUL.0>
0

>  <SCORE.INTRA.VDW>
8.86277

>  <SCORE.INTRA.VDW.0>
-2.78316

>  <SCORE.INTRA.norm>
0.721862

>  <SCORE.RESTR>
12.4531

>  <SCORE.RESTR.CAVITY>
12.4531

>  <SCORE.RESTR.norm>
0.249062

>  <SCORE.SYSTEM>
0

>  <SCORE.SYSTEM.CONST>
0

>  <SCORE.SYSTEM.DIHEDRAL>
0

>  <SCORE.SYSTEM.norm>
0

>  <SCORE.heavy>
50

>  <SCORE.norm>
1.5405

$$$$
