FB1.pdb
  RxDock  10062018263D
librxdock.so/0.1.0
 59 58  0  0  0  0  0  0  0  0999 V2000
    1.6775    0.9731  -12.5595 C   0  0  0  0  0  0
    1.1216   -0.4282  -12.3169 C   0  0  0  0  0  0
    2.1043   -1.3000  -11.5178 C   0  0  0  0  0  0
    2.4243   -0.7381  -10.1101 C   0  0  0  0  0  0
    3.4723   -1.5678   -9.2892 C   0  0  0  0  0  0
    4.5209   -0.5894   -8.7113 C   0  0  0  0  0  0
    2.8229   -2.4477   -8.1395 C   0  0  0  0  0  0
    2.5465   -3.9897   -8.4742 C   0  0  0  0  0  0
    1.3223   -4.5352   -9.3297 C   0  0  0  0  0  0
    1.7363   -5.4421  -10.6440 C   0  0  0  0  0  0
    2.3543   -6.7510  -10.1550 C   0  0  0  0  0  0
    0.5634   -5.7579  -11.6781 C   0  0  0  0  0  0
   -0.1531   -7.2015  -11.8247 C   0  0  0  0  0  0
   -0.9914   -7.8448  -10.6673 C   0  0  0  0  0  0
   -0.4005   -7.7928   -9.1850 C   0  0  0  0  0  0
   -0.8515   -8.7524   -8.0144 C   0  0  0  0  0  0
   -2.3491   -8.8183   -7.6138 C   0  0  0  0  0  0
   -2.9734   -7.5063   -6.9991 C   0  0  0  0  0  0
   -3.9353   -6.7240   -7.9021 C   0  0  0  0  0  0
   -4.6576   -5.4813   -7.3085 C   0  0  0  0  0  0
   -5.5733   -4.5955   -8.2042 C   0  0  0  0  0  0
   -4.9613   -4.0819   -9.5000 C   0  0  0  0  0  0
   -6.8639   -5.2632   -8.4589 N   0  0  0  0  0  0
   -5.5374   -6.0198   -6.2888 O   0  0  0  0  0  0
   -3.6674   -7.8672   -5.8000 O   0  0  0  0  0  0
   -1.0765   -7.0466  -12.9155 O   0  0  0  0  0  0
    3.7220   -4.4689   -9.1822 O   0  0  0  0  0  0
    4.5216   -5.3489   -8.5253 C   0  0  0  0  0  0
    4.2595   -5.9204   -7.4841 O   0  0  0  0  0  0
    5.7545   -5.5821   -9.3542 C   0  0  0  0  0  0
    6.7661   -4.4300   -9.2447 C   0  0  0  0  0  0
    6.3033   -3.3299   -8.2809 C   0  0  0  0  0  0
    7.1753   -2.1013   -8.3969 C   0  0  0  0  0  0
    7.8961   -1.6933   -7.4927 O   0  0  0  0  0  0
    7.0883   -1.4951   -9.5902 O   0  0  0  0  0  0
    8.0697   -5.0603   -8.7355 C   0  0  0  0  0  0
    8.1809   -6.2504   -8.4829 O   0  0  0  0  0  0
    9.0675   -4.1869   -8.5420 O   0  0  0  0  0  0
    3.5539   -2.2807   -6.8598 O   0  0  0  0  0  0
    2.9653   -1.5270   -5.8581 C   0  0  0  0  0  0
    2.4931   -1.9870   -4.8266 O   0  0  0  0  0  0
    2.9660   -0.0266   -6.1793 C   0  0  0  0  0  0
    3.6390    0.8938   -5.1142 C   0  0  0  0  0  0
    3.3882    2.4101   -5.2064 C   0  0  0  0  0  0
    3.3126    3.0749   -3.8622 C   0  0  0  0  0  0
    2.4994    2.8197   -2.9847 O   0  0  0  0  0  0
    4.2686    4.0011   -3.6934 O   0  0  0  0  0  0
    3.3819    0.4798   -3.6600 C   0  0  0  0  0  0
    4.2750    0.3177   -2.8519 O   0  0  0  0  0  0
    2.0836    0.4089   -3.2986 O   0  0  0  0  0  0
   -7.6070   -4.5658   -8.4569 H   0  0  0  0  0  0
   -7.0760   -5.8764   -7.6687 H   0  0  0  0  0  0
   -5.9800   -5.2337   -5.9047 H   0  0  0  0  0  0
   -4.6049   -8.0143   -6.0237 H   0  0  0  0  0  0
   -1.0571   -6.1164  -13.1962 H   0  0  0  0  0  0
    7.4367   -0.5834   -9.6207 H   0  0  0  0  0  0
    9.6883   -4.4289   -7.8106 H   0  0  0  0  0  0
    3.8272    4.8747   -3.7502 H   0  0  0  0  0  0
    1.9150    0.0136   -2.4145 H   0  0  0  0  0  0
  1  2  1  0  0  0
  2  3  1  0  0  0
  3  4  1  0  0  0
  4  5  1  0  0  0
  5  6  1  0  0  0
  5  7  1  0  0  0
  7  8  1  0  0  0
  7 39  1  0  0  0
  8  9  1  0  0  0
  8 27  1  0  0  0
  9 10  1  0  0  0
 10 11  1  0  0  0
 10 12  1  0  0  0
 12 13  1  0  0  0
 13 14  1  0  0  0
 13 26  1  0  0  0
 14 15  1  0  0  0
 15 16  1  0  0  0
 16 17  1  0  0  0
 17 18  1  0  0  0
 18 19  1  0  0  0
 18 25  1  0  0  0
 19 20  1  0  0  0
 20 21  1  0  0  0
 20 24  1  0  0  0
 21 22  1  0  0  0
 21 23  1  0  0  0
 23 51  1  0  0  0
 23 52  1  0  0  0
 24 53  1  0  0  0
 25 54  1  0  0  0
 26 55  1  0  0  0
 27 28  1  0  0  0
 28 29  2  0  0  0
 28 30  1  0  0  0
 30 31  1  0  0  0
 31 32  1  0  0  0
 31 36  1  0  0  0
 32 33  1  0  0  0
 33 34  2  0  0  0
 33 35  1  0  0  0
 35 56  1  0  0  0
 36 37  2  0  0  0
 36 38  1  0  0  0
 38 57  1  0  0  0
 39 40  1  0  0  0
 40 41  2  0  0  0
 40 42  1  0  0  0
 42 43  1  0  0  0
 43 44  1  0  0  0
 43 48  1  0  0  0
 44 45  1  0  0  0
 45 46  2  0  0  0
 45 47  1  0  0  0
 47 58  1  0  0  0
 48 49  2  0  0  0
 48 50  1  0  0  0
 50 59  1  0  0  0
M  END
>  <AUTHOR>
    GENERATED BY OPEN BABEL 2.4.1

>  <CHROM.1>
61.12887991,-177.43423483,132.07422042,97.28964705,-78.51390657,105.88162996
123.46063794,110.10517487,67.80504815,-105.95582052,64.13960894,-44.36587313
-4.54747714,-159.70871541,-56.58255887,-65.40994392,106.93174011,175.61592750
-94.40114997,176.02316812,-52.62362919,179.01426621,142.47051839,11.10793036
77.78616992,1.80601958,-168.95574008,-0.59434526,-114.72686335,164.01259608
148.59748573,108.02906127,-124.03559257,-165.96166649,145.17391051,127.63749436
-60.52304846,106.77903037,171.05482625,1.99091312,-3.36365958,-7.99184812
0.64544095,0.21173420,0.63434931

>  <COMPND>
    UNNAMED

>  <MASTER>
        0    0    0    0    0    0    0    0  109    0  109    0

>  <Name>
FB1.pdb

>  <RI>
0

>  <Rbt.Current_Directory>
/home/fc/tossine/F10/p3/0_clust01

>  <Rbt.Executable>
rbdock/0.1.0

>  <Rbt.Library>
librxdock.so/0.1.0

>  <Rbt.Parameter_File>
/cluster/rxdock/data/scripts/dock.prm

>  <Rbt.Receptor>
rx_4.prm

>  <SCORE>
79.0394

>  <SCORE.INTER>
11.9163

>  <SCORE.INTER.CONST>
1

>  <SCORE.INTER.POLAR>
-2.21479

>  <SCORE.INTER.REPUL>
1.06125

>  <SCORE.INTER.ROT>
32

>  <SCORE.INTER.VDW>
-23.2596

>  <SCORE.INTER.norm>
0.238326

>  <SCORE.INTRA>
53.2424

>  <SCORE.INTRA.DIHEDRAL>
78.4523

>  <SCORE.INTRA.DIHEDRAL.0>
47.3121

>  <SCORE.INTRA.POLAR>
1.34194

>  <SCORE.INTRA.POLAR.0>
-1.47808

>  <SCORE.INTRA.REPUL>
0

>  <SCORE.INTRA.REPUL.0>
0

>  <SCORE.INTRA.VDW>
9.45361

>  <SCORE.INTRA.VDW.0>
-2.78316

>  <SCORE.INTRA.norm>
1.06485

>  <SCORE.RESTR>
13.8807

>  <SCORE.RESTR.CAVITY>
13.8807

>  <SCORE.RESTR.norm>
0.277614

>  <SCORE.SYSTEM>
0

>  <SCORE.SYSTEM.CONST>
0

>  <SCORE.SYSTEM.DIHEDRAL>
0

>  <SCORE.SYSTEM.norm>
0

>  <SCORE.heavy>
50

>  <SCORE.norm>
1.58079

$$$$
