FB1.pdb
  RxDock  10052001163D
librxdock.so/0.1.0
 59 58  0  0  0  0  0  0  0  0999 V2000
  -13.1503   -3.0364    5.2963 C   0  0  0  0  0  0
  -14.4022   -2.2207    5.6104 C   0  0  0  0  0  0
  -14.1099   -1.0921    6.6129 C   0  0  0  0  0  0
  -13.7298   -1.6034    8.0249 C   0  0  0  0  0  0
  -12.1959   -1.8408    8.2518 C   0  0  0  0  0  0
  -11.4247   -0.6464    7.6442 C   0  0  0  0  0  0
  -11.8064   -2.0517    9.7755 C   0  0  0  0  0  0
  -12.7061   -1.2977   10.8656 C   0  0  0  0  0  0
  -13.1815   -1.9210   12.2490 C   0  0  0  0  0  0
  -13.1402   -3.5683   12.3250 C   0  0  0  0  0  0
  -13.2295   -3.9887   13.7911 C   0  0  0  0  0  0
  -14.2514   -4.3393   11.4789 C   0  0  0  0  0  0
  -14.1268   -5.8834   11.0110 C   0  0  0  0  0  0
  -13.0156   -6.3742   10.0209 C   0  0  0  0  0  0
  -13.2352   -6.1356    8.4575 C   0  0  0  0  0  0
  -14.5287   -6.5746    7.6646 C   0  0  0  0  0  0
  -14.6116   -8.0047    7.0685 C   0  0  0  0  0  0
  -13.7505   -9.1176    7.7822 C   0  0  0  0  0  0
  -14.5319  -10.2311    8.4907 C   0  0  0  0  0  0
  -13.7510  -11.4841    8.9788 C   0  0  0  0  0  0
  -13.2838  -12.5700    7.9649 C   0  0  0  0  0  0
  -14.1864  -12.8070    6.7621 C   0  0  0  0  0  0
  -11.8919  -12.3282    7.5401 N   0  0  0  0  0  0
  -12.5283  -10.9550    9.5522 O   0  0  0  0  0  0
  -12.8983   -9.7148    6.7990 O   0  0  0  0  0  0
  -13.9001   -6.6200   12.2245 O   0  0  0  0  0  0
  -11.9703   -0.1026   11.2434 O   0  0  0  0  0  0
  -10.8098   -0.2827   11.9261 C   0  0  0  0  0  0
  -10.4385   -1.3134   12.4544 O   0  0  0  0  0  0
  -10.0033    0.9833   11.8361 C   0  0  0  0  0  0
   -9.9327    1.5378   10.4043 C   0  0  0  0  0  0
   -9.3935    2.9731   10.3548 C   0  0  0  0  0  0
   -9.1293    3.5044   11.7445 C   0  0  0  0  0  0
   -8.0082    3.7562   12.1727 O   0  0  0  0  0  0
  -10.2434    3.6780   12.4709 O   0  0  0  0  0  0
   -8.9956    0.5977    9.6336 C   0  0  0  0  0  0
   -8.0110    0.9890    9.0254 O   0  0  0  0  0  0
   -9.3738   -0.6879    9.6405 O   0  0  0  0  0  0
  -11.6427   -3.4915   10.0920 O   0  0  0  0  0  0
  -10.4867   -3.8970   10.7380 C   0  0  0  0  0  0
   -9.4057   -3.3290   10.6530 O   0  0  0  0  0  0
  -10.7040   -5.1555   11.5885 C   0  0  0  0  0  0
   -9.7148   -6.3323   11.3219 C   0  0  0  0  0  0
   -9.3444   -7.2475   12.5032 C   0  0  0  0  0  0
  -10.0624   -6.8875   13.7718 C   0  0  0  0  0  0
  -10.3631   -5.7555   14.1249 O   0  0  0  0  0  0
  -10.3756   -7.9649   14.5077 O   0  0  0  0  0  0
  -10.1061   -7.2412   10.1501 C   0  0  0  0  0  0
   -9.6313   -7.1255    9.0375 O   0  0  0  0  0  0
  -10.9399   -8.2568   10.4580 O   0  0  0  0  0  0
  -11.2968  -12.2665    8.3651 H   0  0  0  0  0  0
  -11.8385  -11.4035    7.1070 H   0  0  0  0  0  0
  -12.8305  -10.3484   10.2608 H   0  0  0  0  0  0
  -13.4612  -10.1469    6.1305 H   0  0  0  0  0  0
  -14.1905   -7.5360   12.0789 H   0  0  0  0  0  0
  -11.0761    3.6859   11.9611 H   0  0  0  0  0  0
   -9.2687   -1.1416   10.5134 H   0  0  0  0  0  0
   -9.9655   -8.7373   14.0643 H   0  0  0  0  0  0
  -11.0752   -8.4121   11.4191 H   0  0  0  0  0  0
  1  2  1  0  0  0
  2  3  1  0  0  0
  3  4  1  0  0  0
  4  5  1  0  0  0
  5  6  1  0  0  0
  5  7  1  0  0  0
  7  8  1  0  0  0
  7 39  1  0  0  0
  8  9  1  0  0  0
  8 27  1  0  0  0
  9 10  1  0  0  0
 10 11  1  0  0  0
 10 12  1  0  0  0
 12 13  1  0  0  0
 13 14  1  0  0  0
 13 26  1  0  0  0
 14 15  1  0  0  0
 15 16  1  0  0  0
 16 17  1  0  0  0
 17 18  1  0  0  0
 18 19  1  0  0  0
 18 25  1  0  0  0
 19 20  1  0  0  0
 20 21  1  0  0  0
 20 24  1  0  0  0
 21 22  1  0  0  0
 21 23  1  0  0  0
 23 51  1  0  0  0
 23 52  1  0  0  0
 24 53  1  0  0  0
 25 54  1  0  0  0
 26 55  1  0  0  0
 27 28  1  0  0  0
 28 29  2  0  0  0
 28 30  1  0  0  0
 30 31  1  0  0  0
 31 32  1  0  0  0
 31 36  1  0  0  0
 32 33  1  0  0  0
 33 34  2  0  0  0
 33 35  1  0  0  0
 35 56  1  0  0  0
 36 37  2  0  0  0
 36 38  1  0  0  0
 38 57  1  0  0  0
 39 40  1  0  0  0
 40 41  2  0  0  0
 40 42  1  0  0  0
 42 43  1  0  0  0
 43 44  1  0  0  0
 43 48  1  0  0  0
 44 45  1  0  0  0
 45 46  2  0  0  0
 45 47  1  0  0  0
 47 58  1  0  0  0
 48 49  2  0  0  0
 48 50  1  0  0  0
 50 59  1  0  0  0
M  END
>  <AUTHOR>
    GENERATED BY OPEN BABEL 2.4.1

>  <CHROM.1>
-66.64963079,90.07469089,43.61491595,-30.72353730,139.38722252,129.33857666
-19.82831736,-67.51764927,164.01880021,159.10896229,-63.84635279,-80.36703949
156.08922904,-52.46858290,-87.49317463,26.18826372,113.58319552,168.82586701
-63.09171124,-75.62093569,-33.05683616,58.42527394,54.64244823,-13.69539663
-46.90486021,166.99768505,-2.75723341,-125.36665032,112.92738390,-16.25728732
-71.11327932,-28.03414060,127.32590456,148.05667293,2.37881956,98.01200499
-34.58122171,5.73585160,-11.02956175,-11.71515522,-4.31111568,10.09234138
2.10779674,1.07502362,2.84647894

>  <COMPND>
    UNNAMED

>  <MASTER>
        0    0    0    0    0    0    0    0  109    0  109    0

>  <Name>
FB1.pdb

>  <RI>
0

>  <Rbt.Current_Directory>
/home/fc/tossine/F10/p3/0_clust01

>  <Rbt.Executable>
rbdock/0.1.0

>  <Rbt.Library>
librxdock.so/0.1.0

>  <Rbt.Parameter_File>
dock.prm

>  <Rbt.Receptor>
rx_0.prm

>  <SCORE>
49.0651

>  <SCORE.INTER>
10.6221

>  <SCORE.INTER.CONST>
1

>  <SCORE.INTER.POLAR>
-1.87283

>  <SCORE.INTER.REPUL>
1.49412

>  <SCORE.INTER.ROT>
32

>  <SCORE.INTER.VDW>
-27.8809

>  <SCORE.INTER.norm>
0.212441

>  <SCORE.INTRA>
35.1617

>  <SCORE.INTRA.DIHEDRAL>
51.054

>  <SCORE.INTRA.DIHEDRAL.0>
47.3121

>  <SCORE.INTRA.POLAR>
0.363001

>  <SCORE.INTRA.POLAR.0>
-1.47808

>  <SCORE.INTRA.REPUL>
0

>  <SCORE.INTRA.REPUL.0>
0

>  <SCORE.INTRA.VDW>
8.4005

>  <SCORE.INTRA.VDW.0>
-2.78316

>  <SCORE.INTRA.norm>
0.703234

>  <SCORE.RESTR>
3.28132

>  <SCORE.RESTR.CAVITY>
3.28132

>  <SCORE.RESTR.norm>
0.0656265

>  <SCORE.SYSTEM>
0

>  <SCORE.SYSTEM.CONST>
0

>  <SCORE.SYSTEM.DIHEDRAL>
0

>  <SCORE.SYSTEM.norm>
0

>  <SCORE.heavy>
50

>  <SCORE.norm>
0.981301

$$$$
