FB1.pdb
  RxDock  10062015553D
librxdock.so/0.1.0
 59 58  0  0  0  0  0  0  0  0999 V2000
  -13.6826   -2.6247   18.4819 C   0  0  0  0  0  0
  -12.4786   -1.8084   18.0177 C   0  0  0  0  0  0
  -11.5255   -2.6441   17.1474 C   0  0  0  0  0  0
  -10.9583   -1.8682   15.9325 C   0  0  0  0  0  0
  -10.5874   -2.7571   14.6945 C   0  0  0  0  0  0
   -9.7363   -3.9490   15.1900 C   0  0  0  0  0  0
  -11.8500   -3.2624   13.8768 C   0  0  0  0  0  0
  -11.9006   -2.8937   12.3187 C   0  0  0  0  0  0
  -10.6345   -2.5653   11.4146 C   0  0  0  0  0  0
  -10.0171   -1.0469   11.6005 C   0  0  0  0  0  0
   -9.0616   -0.7666   10.4418 C   0  0  0  0  0  0
  -11.0815    0.1359   11.7142 C   0  0  0  0  0  0
  -10.6922    1.7058   11.7619 C   0  0  0  0  0  0
  -10.2691    2.5058   10.4824 C   0  0  0  0  0  0
  -11.1822    2.3861    9.1781 C   0  0  0  0  0  0
  -10.9444    1.3389    8.0199 C   0  0  0  0  0  0
  -11.9489    0.1724    7.8258 C   0  0  0  0  0  0
  -11.7586   -0.7152    6.5354 C   0  0  0  0  0  0
  -12.8742   -1.7237    6.2339 C   0  0  0  0  0  0
  -12.5912   -2.8485    5.1981 C   0  0  0  0  0  0
  -13.7536   -3.4741    4.3717 C   0  0  0  0  0  0
  -14.5422   -4.5875    5.0470 C   0  0  0  0  0  0
  -14.6557   -2.4263    3.8571 N   0  0  0  0  0  0
  -11.7208   -2.2323    4.2149 O   0  0  0  0  0  0
  -11.6229    0.1620    5.4121 O   0  0  0  0  0  0
  -11.8754    2.3655   12.2427 O   0  0  0  0  0  0
  -12.5343   -4.0207   11.6548 O   0  0  0  0  0  0
  -12.8615   -3.8613   10.3461 C   0  0  0  0  0  0
  -12.5620   -2.9177    9.6394 O   0  0  0  0  0  0
  -13.5751   -5.1000    9.8796 C   0  0  0  0  0  0
  -12.6490   -6.0650    9.1221 C   0  0  0  0  0  0
  -11.2456   -6.1384    9.7372 C   0  0  0  0  0  0
  -10.3983   -7.1771    9.0395 C   0  0  0  0  0  0
  -10.5770   -7.5299    7.8788 O   0  0  0  0  0  0
   -9.4245   -7.6796    9.8128 O   0  0  0  0  0  0
  -13.3257   -7.4409    9.1917 C   0  0  0  0  0  0
  -13.5492   -8.0218   10.2429 O   0  0  0  0  0  0
  -13.6086   -7.9791    7.9975 O   0  0  0  0  0  0
  -12.0985   -4.7054   14.1133 O   0  0  0  0  0  0
  -13.1939   -5.0686   14.8790 C   0  0  0  0  0  0
  -13.9120   -4.2832   15.4839 O   0  0  0  0  0  0
  -13.4204   -6.5862   14.8911 C   0  0  0  0  0  0
  -13.0256   -7.3404   13.5835 C   0  0  0  0  0  0
  -11.8751   -6.7663   12.7366 C   0  0  0  0  0  0
  -10.5209   -7.0386   13.3253 C   0  0  0  0  0  0
  -10.3023   -7.6687   14.3509 O   0  0  0  0  0  0
   -9.5268   -6.5236   12.5858 O   0  0  0  0  0  0
  -12.7476   -8.8372   13.7698 C   0  0  0  0  0  0
  -12.3161   -9.3047   14.8052 O   0  0  0  0  0  0
  -13.1153   -9.6274   12.7395 O   0  0  0  0  0  0
  -15.6211   -2.7352    3.9628 H   0  0  0  0  0  0
  -14.5154   -2.3413    2.8479 H   0  0  0  0  0  0
  -11.4894   -2.9600    3.5999 H   0  0  0  0  0  0
  -10.9947   -0.2416    4.7851 H   0  0  0  0  0  0
  -11.7280    3.3246   12.1887 H   0  0  0  0  0  0
   -9.4901   -7.4583   10.7616 H   0  0  0  0  0  0
  -13.1399   -7.5563    7.2357 H   0  0  0  0  0  0
   -9.9274   -5.8305   12.0196 H   0  0  0  0  0  0
  -13.5697   -9.1674   11.9992 H   0  0  0  0  0  0
  1  2  1  0  0  0
  2  3  1  0  0  0
  3  4  1  0  0  0
  4  5  1  0  0  0
  5  6  1  0  0  0
  5  7  1  0  0  0
  7  8  1  0  0  0
  7 39  1  0  0  0
  8  9  1  0  0  0
  8 27  1  0  0  0
  9 10  1  0  0  0
 10 11  1  0  0  0
 10 12  1  0  0  0
 12 13  1  0  0  0
 13 14  1  0  0  0
 13 26  1  0  0  0
 14 15  1  0  0  0
 15 16  1  0  0  0
 16 17  1  0  0  0
 17 18  1  0  0  0
 18 19  1  0  0  0
 18 25  1  0  0  0
 19 20  1  0  0  0
 20 21  1  0  0  0
 20 24  1  0  0  0
 21 22  1  0  0  0
 21 23  1  0  0  0
 23 51  1  0  0  0
 23 52  1  0  0  0
 24 53  1  0  0  0
 25 54  1  0  0  0
 26 55  1  0  0  0
 27 28  1  0  0  0
 28 29  2  0  0  0
 28 30  1  0  0  0
 30 31  1  0  0  0
 31 32  1  0  0  0
 31 36  1  0  0  0
 32 33  1  0  0  0
 33 34  2  0  0  0
 33 35  1  0  0  0
 35 56  1  0  0  0
 36 37  2  0  0  0
 36 38  1  0  0  0
 38 57  1  0  0  0
 39 40  1  0  0  0
 40 41  2  0  0  0
 40 42  1  0  0  0
 42 43  1  0  0  0
 43 44  1  0  0  0
 43 48  1  0  0  0
 44 45  1  0  0  0
 45 46  2  0  0  0
 45 47  1  0  0  0
 47 58  1  0  0  0
 48 49  2  0  0  0
 48 50  1  0  0  0
 50 59  1  0  0  0
M  END
>  <AUTHOR>
    GENERATED BY OPEN BABEL 2.4.1

>  <CHROM.1>
139.44897757,-151.84362582,-48.68430870,123.32047663,23.81967296,108.20120370
-78.03131361,170.93301141,-165.79026973,-174.06532936,76.72402027,48.88335388
-173.32843066,-92.67633422,110.46201007,171.90979416,-170.85877359,-165.33399595
144.99974754,-152.13113196,-83.53149804,175.90554806,-138.09039361,7.58983647
-98.82678528,38.58661183,175.35578652,-61.38337036,25.96741017,11.81255057
15.71786886,-7.07371071,-32.60352810,30.19599231,76.02348047,-29.56921823
1.47268932,19.80521599,-3.36712298,-11.92561246,-3.84731812,11.01670750,-1.44114952
-1.41574795,-0.96326703

>  <COMPND>
    UNNAMED

>  <MASTER>
        0    0    0    0    0    0    0    0  109    0  109    0

>  <Name>
FB1.pdb

>  <RI>
0

>  <Rbt.Current_Directory>
/home/fc/tossine/F10/p3/0_clust01

>  <Rbt.Executable>
rbdock/0.1.0

>  <Rbt.Library>
librxdock.so/0.1.0

>  <Rbt.Parameter_File>
/cluster/rxdock/data/scripts/dock.prm

>  <Rbt.Receptor>
rx_0.prm

>  <SCORE>
90.3464

>  <SCORE.INTER>
69.3174

>  <SCORE.INTER.CONST>
1

>  <SCORE.INTER.POLAR>
-2.83595

>  <SCORE.INTER.REPUL>
0.553996

>  <SCORE.INTER.ROT>
32

>  <SCORE.INTER.VDW>
38.7896

>  <SCORE.INTER.norm>
1.38635

>  <SCORE.INTRA>
18.1822

>  <SCORE.INTRA.DIHEDRAL>
27.29

>  <SCORE.INTRA.DIHEDRAL.0>
47.3121

>  <SCORE.INTRA.POLAR>
-0.19813

>  <SCORE.INTRA.POLAR.0>
-1.47808

>  <SCORE.INTRA.REPUL>
0

>  <SCORE.INTRA.REPUL.0>
0

>  <SCORE.INTRA.VDW>
5.2108

>  <SCORE.INTRA.VDW.0>
-2.78316

>  <SCORE.INTRA.norm>
0.363643

>  <SCORE.RESTR>
2.84686

>  <SCORE.RESTR.CAVITY>
2.84686

>  <SCORE.RESTR.norm>
0.0569372

>  <SCORE.SYSTEM>
0

>  <SCORE.SYSTEM.CONST>
0

>  <SCORE.SYSTEM.DIHEDRAL>
0

>  <SCORE.SYSTEM.norm>
0

>  <SCORE.heavy>
50

>  <SCORE.norm>
1.80693

$$$$
