FB1.pdb
  RxDock  10062016393D
librxdock.so/0.1.0
 59 58  0  0  0  0  0  0  0  0999 V2000
  -12.9443  -10.5173    7.7666 C   0  0  0  0  0  0
  -13.4518   -9.0803    7.8605 C   0  0  0  0  0  0
  -13.5459   -8.6039    9.3194 C   0  0  0  0  0  0
  -12.5460   -7.4724    9.6653 C   0  0  0  0  0  0
  -12.4705   -6.3117    8.6130 C   0  0  0  0  0  0
  -13.8833   -6.0998    8.0216 C   0  0  0  0  0  0
  -11.8939   -4.9570    9.2047 C   0  0  0  0  0  0
  -11.0224   -4.0461    8.2163 C   0  0  0  0  0  0
  -11.4509   -2.6134    7.6758 C   0  0  0  0  0  0
  -12.9669   -2.5340    7.0303 C   0  0  0  0  0  0
  -13.6836   -1.3218    7.6227 C   0  0  0  0  0  0
  -13.0512   -2.4800    5.4382 C   0  0  0  0  0  0
  -13.5639   -3.7056    4.5143 C   0  0  0  0  0  0
  -14.2751   -4.9678    5.1119 C   0  0  0  0  0  0
  -15.7435   -5.3247    4.5966 C   0  0  0  0  0  0
  -17.0341   -4.4798    4.9359 C   0  0  0  0  0  0
  -17.0654   -2.9647    4.6032 C   0  0  0  0  0  0
  -17.5631   -2.0008    5.7488 C   0  0  0  0  0  0
  -17.2534   -0.5100    5.5647 C   0  0  0  0  0  0
  -15.7803   -0.0378    5.7232 C   0  0  0  0  0  0
  -14.9251    0.3204    4.4719 C   0  0  0  0  0  0
  -13.4244    0.4509    4.6917 C   0  0  0  0  0  0
  -15.2166   -0.5988    3.3555 N   0  0  0  0  0  0
  -15.8689    1.1946    6.4828 O   0  0  0  0  0  0
  -18.9805   -2.1588    5.8742 O   0  0  0  0  0  0
  -14.5274   -3.1188    3.6232 O   0  0  0  0  0  0
   -9.7558   -3.8126    8.8897 O   0  0  0  0  0  0
   -9.5633   -2.5822    9.4323 C   0  0  0  0  0  0
   -8.8320   -1.7117    9.0000 O   0  0  0  0  0  0
  -10.4865   -2.4315   10.6097 C   0  0  0  0  0  0
  -10.4487   -1.0181   11.2125 C   0  0  0  0  0  0
  -11.1288    0.0232   10.3144 C   0  0  0  0  0  0
  -10.4613    1.3728   10.4426 C   0  0  0  0  0  0
   -9.3462    1.5348   10.9263 O   0  0  0  0  0  0
  -11.2065    2.3843    9.9732 O   0  0  0  0  0  0
  -11.1838   -1.1128   12.5566 C   0  0  0  0  0  0
  -10.6608   -0.8312   13.6241 O   0  0  0  0  0  0
  -12.4372   -1.5791   12.4698 O   0  0  0  0  0  0
  -12.9546   -4.1765    9.8872 O   0  0  0  0  0  0
  -13.4148   -4.6228   11.1148 C   0  0  0  0  0  0
  -14.4395   -5.2717   11.2803 O   0  0  0  0  0  0
  -12.4903   -4.2133   12.2689 C   0  0  0  0  0  0
  -11.4712   -5.2978   12.7379 C   0  0  0  0  0  0
  -10.2724   -5.6077   11.8229 C   0  0  0  0  0  0
   -9.5311   -6.8491   12.2277 C   0  0  0  0  0  0
   -8.6165   -7.3694   11.6037 O   0  0  0  0  0  0
   -9.9663   -7.3493   13.3941 O   0  0  0  0  0  0
  -10.9180   -5.0836   14.1522 C   0  0  0  0  0  0
  -10.1265   -4.2029   14.4253 O   0  0  0  0  0  0
  -11.4498   -5.8739   15.1082 O   0  0  0  0  0  0
  -16.1575   -0.4160    3.0092 H   0  0  0  0  0  0
  -15.2506   -1.5538    3.7190 H   0  0  0  0  0  0
  -15.9975    0.9040    7.4104 H   0  0  0  0  0  0
  -19.1669   -3.0980    6.0577 H   0  0  0  0  0  0
  -14.0430   -2.6603    2.9163 H   0  0  0  0  0  0
  -10.9608    3.2703   10.3018 H   0  0  0  0  0  0
  -12.8285   -1.8662   13.3319 H   0  0  0  0  0  0
   -9.4694   -8.1807   13.5466 H   0  0  0  0  0  0
  -12.1521   -6.4894   14.8012 H   0  0  0  0  0  0
  1  2  1  0  0  0
  2  3  1  0  0  0
  3  4  1  0  0  0
  4  5  1  0  0  0
  5  6  1  0  0  0
  5  7  1  0  0  0
  7  8  1  0  0  0
  7 39  1  0  0  0
  8  9  1  0  0  0
  8 27  1  0  0  0
  9 10  1  0  0  0
 10 11  1  0  0  0
 10 12  1  0  0  0
 12 13  1  0  0  0
 13 14  1  0  0  0
 13 26  1  0  0  0
 14 15  1  0  0  0
 15 16  1  0  0  0
 16 17  1  0  0  0
 17 18  1  0  0  0
 18 19  1  0  0  0
 18 25  1  0  0  0
 19 20  1  0  0  0
 20 21  1  0  0  0
 20 24  1  0  0  0
 21 22  1  0  0  0
 21 23  1  0  0  0
 23 51  1  0  0  0
 23 52  1  0  0  0
 24 53  1  0  0  0
 25 54  1  0  0  0
 26 55  1  0  0  0
 27 28  1  0  0  0
 28 29  2  0  0  0
 28 30  1  0  0  0
 30 31  1  0  0  0
 31 32  1  0  0  0
 31 36  1  0  0  0
 32 33  1  0  0  0
 33 34  2  0  0  0
 33 35  1  0  0  0
 35 56  1  0  0  0
 36 37  2  0  0  0
 36 38  1  0  0  0
 38 57  1  0  0  0
 39 40  1  0  0  0
 40 41  2  0  0  0
 40 42  1  0  0  0
 42 43  1  0  0  0
 43 44  1  0  0  0
 43 48  1  0  0  0
 44 45  1  0  0  0
 45 46  2  0  0  0
 45 47  1  0  0  0
 47 58  1  0  0  0
 48 49  2  0  0  0
 48 50  1  0  0  0
 50 59  1  0  0  0
M  END
>  <AUTHOR>
    GENERATED BY OPEN BABEL 2.4.1

>  <CHROM.1>
113.44758546,45.93155961,34.72295891,146.30903478,112.91535463,73.19735417
-50.09901109,-104.81174292,132.02656326,108.10657393,11.61946579,121.71539049
78.73694040,-70.32805880,55.46598541,-131.93914856,164.51383434,-71.58373678
57.32932901,104.51054670,-166.03263815,78.81649655,69.47730474,-106.64009265
-174.27185563,71.85754961,-147.57794006,121.02669259,16.76691401,160.13081718
164.64946201,-98.84205173,-97.46507333,72.77031907,-167.91065486,-71.93942528
173.56732081,176.47425242,-1.41199256,-12.71938474,-3.37021520,8.91968212
0.45011974,0.93309841,2.98933112

>  <COMPND>
    UNNAMED

>  <MASTER>
        0    0    0    0    0    0    0    0  109    0  109    0

>  <Name>
FB1.pdb

>  <RI>
0

>  <Rbt.Current_Directory>
/home/fc/tossine/F10/p3/0_clust01

>  <Rbt.Executable>
rbdock/0.1.0

>  <Rbt.Library>
librxdock.so/0.1.0

>  <Rbt.Parameter_File>
/cluster/rxdock/data/scripts/dock.prm

>  <Rbt.Receptor>
rx_1.prm

>  <SCORE>
68.7094

>  <SCORE.INTER>
11.7247

>  <SCORE.INTER.CONST>
1

>  <SCORE.INTER.POLAR>
-1.97954

>  <SCORE.INTER.REPUL>
2.05635

>  <SCORE.INTER.ROT>
32

>  <SCORE.INTER.VDW>
-29.2266

>  <SCORE.INTER.norm>
0.234495

>  <SCORE.INTRA>
49.5779

>  <SCORE.INTRA.DIHEDRAL>
81.8545

>  <SCORE.INTRA.DIHEDRAL.0>
47.3121

>  <SCORE.INTRA.POLAR>
0.610402

>  <SCORE.INTRA.POLAR.0>
-1.47808

>  <SCORE.INTRA.REPUL>
0

>  <SCORE.INTRA.REPUL.0>
0

>  <SCORE.INTRA.VDW>
6.57529

>  <SCORE.INTRA.VDW.0>
-2.78316

>  <SCORE.INTRA.norm>
0.991558

>  <SCORE.RESTR>
7.40676

>  <SCORE.RESTR.CAVITY>
7.40676

>  <SCORE.RESTR.norm>
0.148135

>  <SCORE.SYSTEM>
0

>  <SCORE.SYSTEM.CONST>
0

>  <SCORE.SYSTEM.DIHEDRAL>
0

>  <SCORE.SYSTEM.norm>
0

>  <SCORE.heavy>
50

>  <SCORE.norm>
1.37419

$$$$
