FB1.pdb
  RxDock  10062015593D
librxdock.so/0.1.0
 59 58  0  0  0  0  0  0  0  0999 V2000
  -16.7890   -7.9147   11.8227 C   0  0  0  0  0  0
  -16.0703   -6.7956   12.5727 C   0  0  0  0  0  0
  -14.9822   -6.1380   11.7079 C   0  0  0  0  0  0
  -14.9901   -4.5905   11.7769 C   0  0  0  0  0  0
  -13.7835   -3.8902   11.0597 C   0  0  0  0  0  0
  -12.5104   -4.1326   11.9029 C   0  0  0  0  0  0
  -13.5721   -4.3698    9.5620 C   0  0  0  0  0  0
  -12.2829   -3.8077    8.7951 C   0  0  0  0  0  0
  -10.8111   -4.3946    8.9279 C   0  0  0  0  0  0
  -10.6762   -5.7364    9.8780 C   0  0  0  0  0  0
  -10.7211   -6.9724    8.9810 C   0  0  0  0  0  0
   -9.3900   -5.8051   10.8192 C   0  0  0  0  0  0
   -9.4044   -6.3686   12.3360 C   0  0  0  0  0  0
  -10.5952   -6.1031   13.3197 C   0  0  0  0  0  0
  -11.6521   -7.2749   13.5632 C   0  0  0  0  0  0
  -13.1199   -7.0500   14.1012 C   0  0  0  0  0  0
  -13.6707   -5.6061   14.2398 C   0  0  0  0  0  0
  -14.3640   -5.2439   15.6099 C   0  0  0  0  0  0
  -14.0000   -3.8830   16.2166 C   0  0  0  0  0  0
  -12.8900   -3.8338   17.3045 C   0  0  0  0  0  0
  -12.2627   -2.4747   17.7342 C   0  0  0  0  0  0
  -10.8660   -2.1764   17.2072 C   0  0  0  0  0  0
  -13.1834   -1.3576   17.4497 N   0  0  0  0  0  0
  -13.5258   -4.3492   18.5020 O   0  0  0  0  0  0
  -15.7814   -5.2898   15.4135 O   0  0  0  0  0  0
   -9.3420   -7.7983   12.1997 O   0  0  0  0  0  0
  -12.5812   -3.9020    7.3757 O   0  0  0  0  0  0
  -13.3856   -2.9423    6.8494 C   0  0  0  0  0  0
  -14.5886   -3.0211    6.6876 O   0  0  0  0  0  0
  -12.5557   -1.7155    6.5895 C   0  0  0  0  0  0
  -11.9194   -1.1511    7.8698 C   0  0  0  0  0  0
  -11.4754    0.3088    7.7122 C   0  0  0  0  0  0
  -11.2235    0.6484    6.2615 C   0  0  0  0  0  0
  -12.0061    1.2905    5.5694 O   0  0  0  0  0  0
  -10.0551    0.1804    5.7982 O   0  0  0  0  0  0
  -12.9962   -1.2580    8.9584 C   0  0  0  0  0  0
  -14.1766   -1.4535    8.7121 O   0  0  0  0  0  0
  -12.5425   -1.0696   10.2053 O   0  0  0  0  0  0
  -13.6837   -5.8447    9.4513 O   0  0  0  0  0  0
  -14.0403   -6.3888    8.2287 C   0  0  0  0  0  0
  -13.4918   -6.1308    7.1651 O   0  0  0  0  0  0
  -15.2158   -7.3679    8.3459 C   0  0  0  0  0  0
  -14.8401   -8.8822    8.3306 C   0  0  0  0  0  0
  -14.5113   -9.5323    6.9742 C   0  0  0  0  0  0
  -13.4222  -10.5618    7.0659 C   0  0  0  0  0  0
  -13.5396  -11.6847    7.5370 O   0  0  0  0  0  0
  -12.2629  -10.1302    6.5461 O   0  0  0  0  0  0
  -13.7193   -9.2710    9.3027 C   0  0  0  0  0  0
  -12.8780   -8.4839    9.6892 O   0  0  0  0  0  0
  -13.7865  -10.5269    9.7919 O   0  0  0  0  0  0
  -12.7753   -0.4913   17.7983 H   0  0  0  0  0  0
  -14.0350   -1.4879   18.0004 H   0  0  0  0  0  0
  -13.9798   -5.1669   18.2078 H   0  0  0  0  0  0
  -16.0431   -4.5029   14.9008 H   0  0  0  0  0  0
   -8.8391   -8.1506   12.9530 H   0  0  0  0  0  0
   -9.9800   -0.7926    5.7645 H   0  0  0  0  0  0
  -12.4940   -1.8922   10.7527 H   0  0  0  0  0  0
  -12.3792   -9.1760    6.3528 H   0  0  0  0  0  0
  -14.6133  -11.0154    9.5821 H   0  0  0  0  0  0
  1  2  1  0  0  0
  2  3  1  0  0  0
  3  4  1  0  0  0
  4  5  1  0  0  0
  5  6  1  0  0  0
  5  7  1  0  0  0
  7  8  1  0  0  0
  7 39  1  0  0  0
  8  9  1  0  0  0
  8 27  1  0  0  0
  9 10  1  0  0  0
 10 11  1  0  0  0
 10 12  1  0  0  0
 12 13  1  0  0  0
 13 14  1  0  0  0
 13 26  1  0  0  0
 14 15  1  0  0  0
 15 16  1  0  0  0
 16 17  1  0  0  0
 17 18  1  0  0  0
 18 19  1  0  0  0
 18 25  1  0  0  0
 19 20  1  0  0  0
 20 21  1  0  0  0
 20 24  1  0  0  0
 21 22  1  0  0  0
 21 23  1  0  0  0
 23 51  1  0  0  0
 23 52  1  0  0  0
 24 53  1  0  0  0
 25 54  1  0  0  0
 26 55  1  0  0  0
 27 28  1  0  0  0
 28 29  2  0  0  0
 28 30  1  0  0  0
 30 31  1  0  0  0
 31 32  1  0  0  0
 31 36  1  0  0  0
 32 33  1  0  0  0
 33 34  2  0  0  0
 33 35  1  0  0  0
 35 56  1  0  0  0
 36 37  2  0  0  0
 36 38  1  0  0  0
 38 57  1  0  0  0
 39 40  1  0  0  0
 40 41  2  0  0  0
 40 42  1  0  0  0
 42 43  1  0  0  0
 43 44  1  0  0  0
 43 48  1  0  0  0
 44 45  1  0  0  0
 45 46  2  0  0  0
 45 47  1  0  0  0
 47 58  1  0  0  0
 48 49  2  0  0  0
 48 50  1  0  0  0
 50 59  1  0  0  0
M  END
>  <AUTHOR>
    GENERATED BY OPEN BABEL 2.4.1

>  <CHROM.1>
135.15494727,172.41039278,-71.79141198,-174.58027542,81.75160926,155.42838455
3.47469488,78.52487400,95.86261665,140.71559393,-38.06376676,101.65572710
146.76634395,-158.51355744,8.39898459,-131.58018773,136.19225387,-96.63045214
-73.96176568,166.74710106,-104.47221662,47.66369847,176.15576915,-95.46731085
-60.59341737,-161.06910998,-24.04002959,-15.36043998,102.78764922,65.20196471
-107.18450559,51.61278614,-101.26501892,-77.99112961,143.82865861,-25.18547685
74.47397261,8.63105172,-8.71117789,-12.92204473,-5.05753190,10.61681399,1.83594033
1.38029298,1.28290161

>  <COMPND>
    UNNAMED

>  <MASTER>
        0    0    0    0    0    0    0    0  109    0  109    0

>  <Name>
FB1.pdb

>  <RI>
0

>  <Rbt.Current_Directory>
/home/fc/tossine/F10/p3/0_clust01

>  <Rbt.Executable>
rbdock/0.1.0

>  <Rbt.Library>
librxdock.so/0.1.0

>  <Rbt.Parameter_File>
/cluster/rxdock/data/scripts/dock.prm

>  <Rbt.Receptor>
rx_0.prm

>  <SCORE>
156.614

>  <SCORE.INTER>
78.5718

>  <SCORE.INTER.CONST>
1

>  <SCORE.INTER.POLAR>
-2.19268

>  <SCORE.INTER.REPUL>
1.09227

>  <SCORE.INTER.ROT>
32

>  <SCORE.INTER.VDW>
43.1656

>  <SCORE.INTER.norm>
1.57144

>  <SCORE.INTRA>
75.3224

>  <SCORE.INTRA.DIHEDRAL>
117.062

>  <SCORE.INTRA.DIHEDRAL.0>
47.3121

>  <SCORE.INTRA.POLAR>
1.47808

>  <SCORE.INTRA.POLAR.0>
-1.47808

>  <SCORE.INTRA.REPUL>
0.00504774

>  <SCORE.INTRA.REPUL.0>
0

>  <SCORE.INTRA.VDW>
11.7407

>  <SCORE.INTRA.VDW.0>
-2.78316

>  <SCORE.INTRA.norm>
1.50645

>  <SCORE.RESTR>
2.71932

>  <SCORE.RESTR.CAVITY>
2.71932

>  <SCORE.RESTR.norm>
0.0543864

>  <SCORE.SYSTEM>
0

>  <SCORE.SYSTEM.CONST>
0

>  <SCORE.SYSTEM.DIHEDRAL>
0

>  <SCORE.SYSTEM.norm>
0

>  <SCORE.heavy>
50

>  <SCORE.norm>
3.13227

$$$$
