FB1.pdb
  RxDock  10062017543D
librxdock.so/0.1.0
 59 58  0  0  0  0  0  0  0  0999 V2000
    1.6424  -14.8738    3.3309 C   0  0  0  0  0  0
    2.4670  -14.3253    4.4931 C   0  0  0  0  0  0
    2.4333  -12.7888    4.5399 C   0  0  0  0  0  0
    2.4725  -12.2138    5.9778 C   0  0  0  0  0  0
    2.4613  -10.6476    6.0645 C   0  0  0  0  0  0
    3.6899  -10.1100    5.2951 C   0  0  0  0  0  0
    1.1212   -9.9930    5.5226 C   0  0  0  0  0  0
    0.8045  -10.1736    3.9627 C   0  0  0  0  0  0
    1.8980  -10.3360    2.8199 C   0  0  0  0  0  0
    1.2955  -10.6179    1.3103 C   0  0  0  0  0  0
    0.0967   -9.6975    1.0868 C   0  0  0  0  0  0
    2.3244  -10.4592    0.1016 C   0  0  0  0  0  0
    3.9322  -10.5505    0.2605 C   0  0  0  0  0  0
    4.9100  -10.3129   -0.9411 C   0  0  0  0  0  0
    4.5162  -10.9118   -2.3677 C   0  0  0  0  0  0
    3.4147  -10.2952   -3.3170 C   0  0  0  0  0  0
    2.5315  -11.2378   -4.1766 C   0  0  0  0  0  0
    1.4150  -10.5518   -5.0552 C   0  0  0  0  0  0
    0.5687   -9.4775   -4.3609 C   0  0  0  0  0  0
   -0.9479   -9.7528   -4.1546 C   0  0  0  0  0  0
   -1.9237   -9.7572   -5.3683 C   0  0  0  0  0  0
   -3.4049   -9.6142   -5.0474 C   0  0  0  0  0  0
   -1.5061   -8.7700   -6.3820 N   0  0  0  0  0  0
   -1.0076  -11.0998   -3.6199 O   0  0  0  0  0  0
    2.0497   -9.9639   -6.1959 O   0  0  0  0  0  0
    4.2667   -9.5360    1.2226 O   0  0  0  0  0  0
   -0.0141  -11.3692    3.8500 O   0  0  0  0  0  0
   -1.3302  -11.2475    4.1634 C   0  0  0  0  0  0
   -2.0164  -12.0809    4.7238 O   0  0  0  0  0  0
   -1.7817   -9.8619    3.7922 C   0  0  0  0  0  0
   -3.2317   -9.5799    4.2169 C   0  0  0  0  0  0
   -3.6527   -8.1297    3.9468 C   0  0  0  0  0  0
   -2.9781   -7.1783    4.9075 C   0  0  0  0  0  0
   -2.7339   -7.4549    6.0769 O   0  0  0  0  0  0
   -2.6672   -5.9950    4.3578 O   0  0  0  0  0  0
   -4.1053  -10.5415    3.3995 C   0  0  0  0  0  0
   -4.2250  -10.4658    2.1861 O   0  0  0  0  0  0
   -4.7689  -11.4453    4.1334 O   0  0  0  0  0  0
   -0.0375  -10.3655    6.3702 O   0  0  0  0  0  0
   -0.5976   -9.3951    7.1843 C   0  0  0  0  0  0
   -0.2947   -8.2092    7.1638 O   0  0  0  0  0  0
   -1.6580   -9.9696    8.1328 C   0  0  0  0  0  0
   -2.1634   -9.0034    9.2488 C   0  0  0  0  0  0
   -1.1230   -8.1344    9.9789 C   0  0  0  0  0  0
   -1.6898   -7.4173   11.1701 C   0  0  0  0  0  0
   -1.3548   -6.3074   11.5607 O   0  0  0  0  0  0
   -2.6511   -8.1234   11.7846 O   0  0  0  0  0  0
   -3.3069   -8.0759    8.8195 C   0  0  0  0  0  0
   -3.3166   -6.8847    9.0598 O   0  0  0  0  0  0
   -4.2623   -8.6485    8.0574 O   0  0  0  0  0  0
   -1.2279   -7.9083   -5.9144 H   0  0  0  0  0  0
   -2.3212   -8.5137   -6.9436 H   0  0  0  0  0  0
   -0.5781  -11.0355   -2.7408 H   0  0  0  0  0  0
    2.6414   -9.2550   -5.8830 H   0  0  0  0  0  0
    5.0904   -9.8011    1.6650 H   0  0  0  0  0  0
   -2.8289   -5.9265    3.3972 H   0  0  0  0  0  0
   -5.2865  -12.1023    3.6050 H   0  0  0  0  0  0
   -3.0329   -7.5389   12.4731 H   0  0  0  0  0  0
   -4.1312   -9.6040    7.8679 H   0  0  0  0  0  0
  1  2  1  0  0  0
  2  3  1  0  0  0
  3  4  1  0  0  0
  4  5  1  0  0  0
  5  6  1  0  0  0
  5  7  1  0  0  0
  7  8  1  0  0  0
  7 39  1  0  0  0
  8  9  1  0  0  0
  8 27  1  0  0  0
  9 10  1  0  0  0
 10 11  1  0  0  0
 10 12  1  0  0  0
 12 13  1  0  0  0
 13 14  1  0  0  0
 13 26  1  0  0  0
 14 15  1  0  0  0
 15 16  1  0  0  0
 16 17  1  0  0  0
 17 18  1  0  0  0
 18 19  1  0  0  0
 18 25  1  0  0  0
 19 20  1  0  0  0
 20 21  1  0  0  0
 20 24  1  0  0  0
 21 22  1  0  0  0
 21 23  1  0  0  0
 23 51  1  0  0  0
 23 52  1  0  0  0
 24 53  1  0  0  0
 25 54  1  0  0  0
 26 55  1  0  0  0
 27 28  1  0  0  0
 28 29  2  0  0  0
 28 30  1  0  0  0
 30 31  1  0  0  0
 31 32  1  0  0  0
 31 36  1  0  0  0
 32 33  1  0  0  0
 33 34  2  0  0  0
 33 35  1  0  0  0
 35 56  1  0  0  0
 36 37  2  0  0  0
 36 38  1  0  0  0
 38 57  1  0  0  0
 39 40  1  0  0  0
 40 41  2  0  0  0
 40 42  1  0  0  0
 42 43  1  0  0  0
 43 44  1  0  0  0
 43 48  1  0  0  0
 44 45  1  0  0  0
 45 46  2  0  0  0
 45 47  1  0  0  0
 47 58  1  0  0  0
 48 49  2  0  0  0
 48 50  1  0  0  0
 50 59  1  0  0  0
M  END
>  <AUTHOR>
    GENERATED BY OPEN BABEL 2.4.1

>  <CHROM.1>
145.95526140,179.12720450,-58.85853724,-64.97947459,-28.92823010,108.33779360
175.65890893,78.52987490,42.75439744,21.73803004,-176.66969570,-40.40292288
153.53160973,75.51515737,-144.55328301,177.60607728,-45.67696851,-114.65245472
-64.55532811,-70.74914346,-162.13437816,65.81457976,-42.79071120,-143.44460345
-175.12181069,175.09860361,-71.83975391,-66.53961836,-35.14113765,-5.88967232
-176.26040509,7.64762004,169.88324464,-42.19538540,-170.70483114,-133.45937807
-146.09567220,-173.27068391,0.82548350,-0.32171908,-9.86024828,3.05611818
-1.31289842,-0.37965680,1.52777587

>  <COMPND>
    UNNAMED

>  <MASTER>
        0    0    0    0    0    0    0    0  109    0  109    0

>  <Name>
FB1.pdb

>  <RI>
0

>  <Rbt.Current_Directory>
/home/fc/tossine/F10/p3/0_clust01

>  <Rbt.Executable>
rbdock/0.1.0

>  <Rbt.Library>
librxdock.so/0.1.0

>  <Rbt.Parameter_File>
/cluster/rxdock/data/scripts/dock.prm

>  <Rbt.Receptor>
rx_3.prm

>  <SCORE>
20.7784

>  <SCORE.INTER>
0.300348

>  <SCORE.INTER.CONST>
1

>  <SCORE.INTER.POLAR>
-2.80542

>  <SCORE.INTER.REPUL>
1.12926

>  <SCORE.INTER.ROT>
32

>  <SCORE.INTER.VDW>
-33.2075

>  <SCORE.INTER.norm>
0.00600696

>  <SCORE.INTRA>
17.8179

>  <SCORE.INTRA.DIHEDRAL>
14.0266

>  <SCORE.INTRA.DIHEDRAL.0>
47.3121

>  <SCORE.INTRA.POLAR>
1.47808

>  <SCORE.INTRA.POLAR.0>
-1.47808

>  <SCORE.INTRA.REPUL>
0

>  <SCORE.INTRA.REPUL.0>
0

>  <SCORE.INTRA.VDW>
5.77912

>  <SCORE.INTRA.VDW.0>
-2.78316

>  <SCORE.INTRA.norm>
0.356358

>  <SCORE.RESTR>
2.66015

>  <SCORE.RESTR.CAVITY>
2.66015

>  <SCORE.RESTR.norm>
0.0532031

>  <SCORE.SYSTEM>
0

>  <SCORE.SYSTEM.CONST>
0

>  <SCORE.SYSTEM.DIHEDRAL>
0

>  <SCORE.SYSTEM.norm>
0

>  <SCORE.heavy>
50

>  <SCORE.norm>
0.415568

$$$$
