FB1.pdb
  RxDock  10062017153D
librxdock.so/0.1.0
 59 58  0  0  0  0  0  0  0  0999 V2000
    6.9379   -1.4791   -7.9176 C   0  0  0  0  0  0
    6.9817   -2.6463   -8.9010 C   0  0  0  0  0  0
    5.6490   -3.4125   -8.9350 C   0  0  0  0  0  0
    5.7410   -4.7798   -9.6573 C   0  0  0  0  0  0
    4.6809   -5.8419   -9.2007 C   0  0  0  0  0  0
    4.8954   -6.1262   -7.6961 C   0  0  0  0  0  0
    3.1826   -5.4051   -9.4876 C   0  0  0  0  0  0
    2.1054   -6.5779   -9.6616 C   0  0  0  0  0  0
    0.5468   -6.3622   -9.8906 C   0  0  0  0  0  0
   -0.3585   -7.7412   -9.8847 C   0  0  0  0  0  0
   -1.8135   -7.3652   -9.6097 C   0  0  0  0  0  0
   -0.2778   -8.6409  -11.1996 C   0  0  0  0  0  0
   -0.8988   -8.2132  -12.6314 C   0  0  0  0  0  0
   -2.3669   -7.6875  -12.7872 C   0  0  0  0  0  0
   -2.6576   -6.1489  -12.4747 C   0  0  0  0  0  0
   -3.6945   -5.2612  -13.2693 C   0  0  0  0  0  0
   -5.0675   -4.9299  -12.6271 C   0  0  0  0  0  0
   -5.9833   -3.9090  -13.4071 C   0  0  0  0  0  0
   -5.6157   -2.4261  -13.2720 C   0  0  0  0  0  0
   -6.4501   -1.3840  -14.0696 C   0  0  0  0  0  0
   -5.7487   -0.3677  -15.0185 C   0  0  0  0  0  0
   -6.6596    0.5612  -15.8090 C   0  0  0  0  0  0
   -4.7138    0.3971  -14.2970 N   0  0  0  0  0  0
   -7.3016   -2.1787  -14.9340 O   0  0  0  0  0  0
   -5.9538   -4.2603  -14.7948 O   0  0  0  0  0  0
   -0.0640   -7.1362  -13.0894 O   0  0  0  0  0  0
    2.5339   -7.3557  -10.8123 O   0  0  0  0  0  0
    2.8840   -8.6488  -10.5870 C   0  0  0  0  0  0
    2.3308   -9.6331  -11.0392 O   0  0  0  0  0  0
    4.1405   -8.6647   -9.7610 C   0  0  0  0  0  0
    5.2556   -9.5087  -10.3988 C   0  0  0  0  0  0
    5.4530   -9.1950  -11.8874 C   0  0  0  0  0  0
    6.5104  -10.0860  -12.4967 C   0  0  0  0  0  0
    7.5810   -9.6713  -12.9274 O   0  0  0  0  0  0
    6.1674  -11.3824  -12.5212 O   0  0  0  0  0  0
    6.5347   -9.1770   -9.6179 C   0  0  0  0  0  0
    7.4033  -10.0023   -9.3792 O   0  0  0  0  0  0
    6.5998   -7.9143   -9.1738 O   0  0  0  0  0  0
    2.7303   -4.3760   -8.5200 O   0  0  0  0  0  0
    2.1250   -3.2310   -9.0104 C   0  0  0  0  0  0
    2.1740   -2.8624  -10.1767 O   0  0  0  0  0  0
    1.3713   -2.4566   -7.9211 C   0  0  0  0  0  0
    1.9437   -1.0477   -7.5725 C   0  0  0  0  0  0
    2.8597   -0.9235   -6.3412 C   0  0  0  0  0  0
    3.3141    0.4850   -6.0878 C   0  0  0  0  0  0
    2.6179    1.4868   -6.1796 O   0  0  0  0  0  0
    4.6021    0.5499   -5.7176 O   0  0  0  0  0  0
    2.6504   -0.3408   -8.7357 C   0  0  0  0  0  0
    2.0560    0.3127   -9.5702 O   0  0  0  0  0  0
    3.9985   -0.4003   -8.7169 O   0  0  0  0  0  0
   -3.8668   -0.1659  -14.2321 H   0  0  0  0  0  0
   -5.0186    0.5269  -13.3297 H   0  0  0  0  0  0
   -7.8781   -1.5242  -15.3818 H   0  0  0  0  0  0
   -5.0401   -4.1512  -15.1168 H   0  0  0  0  0  0
   -0.0053   -6.4775  -12.3772 H   0  0  0  0  0  0
    6.8712  -11.9942  -12.8109 H   0  0  0  0  0  0
    7.3899   -7.7175   -8.6118 H   0  0  0  0  0  0
    4.7442    1.4477   -5.3500 H   0  0  0  0  0  0
    4.4524    0.1493   -9.3937 H   0  0  0  0  0  0
  1  2  1  0  0  0
  2  3  1  0  0  0
  3  4  1  0  0  0
  4  5  1  0  0  0
  5  6  1  0  0  0
  5  7  1  0  0  0
  7  8  1  0  0  0
  7 39  1  0  0  0
  8  9  1  0  0  0
  8 27  1  0  0  0
  9 10  1  0  0  0
 10 11  1  0  0  0
 10 12  1  0  0  0
 12 13  1  0  0  0
 13 14  1  0  0  0
 13 26  1  0  0  0
 14 15  1  0  0  0
 15 16  1  0  0  0
 16 17  1  0  0  0
 17 18  1  0  0  0
 18 19  1  0  0  0
 18 25  1  0  0  0
 19 20  1  0  0  0
 20 21  1  0  0  0
 20 24  1  0  0  0
 21 22  1  0  0  0
 21 23  1  0  0  0
 23 51  1  0  0  0
 23 52  1  0  0  0
 24 53  1  0  0  0
 25 54  1  0  0  0
 26 55  1  0  0  0
 27 28  1  0  0  0
 28 29  2  0  0  0
 28 30  1  0  0  0
 30 31  1  0  0  0
 31 32  1  0  0  0
 31 36  1  0  0  0
 32 33  1  0  0  0
 33 34  2  0  0  0
 33 35  1  0  0  0
 35 56  1  0  0  0
 36 37  2  0  0  0
 36 38  1  0  0  0
 38 57  1  0  0  0
 39 40  1  0  0  0
 40 41  2  0  0  0
 40 42  1  0  0  0
 42 43  1  0  0  0
 43 44  1  0  0  0
 43 48  1  0  0  0
 44 45  1  0  0  0
 45 46  2  0  0  0
 45 47  1  0  0  0
 47 58  1  0  0  0
 48 49  2  0  0  0
 48 50  1  0  0  0
 50 59  1  0  0  0
M  END
>  <AUTHOR>
    GENERATED BY OPEN BABEL 2.4.1

>  <CHROM.1>
-166.71942165,154.18926174,-61.12669671,154.49803666,177.21055827,130.48239547
-174.04005406,116.27177608,159.88339570,-69.46131887,-49.34839610,82.03846300
-51.50610725,143.71818617,103.72108224,173.36666491,-77.96508131,177.44851891
-63.40968231,-125.86494508,176.86688877,175.48942031,80.75926725,116.87860645
-126.36415156,47.59381185,-177.35796639,144.47603828,-114.54967836,-173.05037041
175.53730150,-15.91990440,114.23613174,-98.11634572,-178.37081949,84.49762950
41.45844776,-165.34766900,-172.34939813,1.42400659,-4.83908361,-10.61562378
-0.20587907,-0.46800856,0.38826617

>  <COMPND>
    UNNAMED

>  <MASTER>
        0    0    0    0    0    0    0    0  109    0  109    0

>  <Name>
FB1.pdb

>  <RI>
0

>  <Rbt.Current_Directory>
/home/fc/tossine/F10/p3/0_clust01

>  <Rbt.Executable>
rbdock/0.1.0

>  <Rbt.Library>
librxdock.so/0.1.0

>  <Rbt.Parameter_File>
/cluster/rxdock/data/scripts/dock.prm

>  <Rbt.Receptor>
rx_2.prm

>  <SCORE>
39.6072

>  <SCORE.INTER>
7.89966

>  <SCORE.INTER.CONST>
1

>  <SCORE.INTER.POLAR>
-0.493217

>  <SCORE.INTER.REPUL>
0.676934

>  <SCORE.INTER.ROT>
32

>  <SCORE.INTER.VDW>
-31.2081

>  <SCORE.INTER.norm>
0.157993

>  <SCORE.INTRA>
24.4307

>  <SCORE.INTRA.DIHEDRAL>
34.3507

>  <SCORE.INTRA.DIHEDRAL.0>
47.3121

>  <SCORE.INTRA.POLAR>
1.47808

>  <SCORE.INTRA.POLAR.0>
-1.47808

>  <SCORE.INTRA.REPUL>
0

>  <SCORE.INTRA.REPUL.0>
0

>  <SCORE.INTRA.VDW>
2.22992

>  <SCORE.INTRA.VDW.0>
-2.78316

>  <SCORE.INTRA.norm>
0.488614

>  <SCORE.RESTR>
7.27687

>  <SCORE.RESTR.CAVITY>
7.27687

>  <SCORE.RESTR.norm>
0.145537

>  <SCORE.SYSTEM>
0

>  <SCORE.SYSTEM.CONST>
0

>  <SCORE.SYSTEM.DIHEDRAL>
0

>  <SCORE.SYSTEM.norm>
0

>  <SCORE.heavy>
50

>  <SCORE.norm>
0.792145

$$$$
