FB1.pdb
  RxDock  10062018173D
librxdock.so/0.1.0
 59 58  0  0  0  0  0  0  0  0999 V2000
    3.6935   -9.8223  -10.9537 C   0  0  0  0  0  0
    2.7658   -8.9336  -10.1285 C   0  0  0  0  0  0
    3.5145   -7.7333   -9.5260 C   0  0  0  0  0  0
    4.1933   -6.8326  -10.5879 C   0  0  0  0  0  0
    4.4352   -5.3489  -10.1400 C   0  0  0  0  0  0
    4.5962   -4.4790  -11.4080 C   0  0  0  0  0  0
    3.2915   -4.7766   -9.2007 C   0  0  0  0  0  0
    3.7173   -3.6534   -8.1407 C   0  0  0  0  0  0
    5.0076   -3.7125   -7.2135 C   0  0  0  0  0  0
    6.3715   -3.0572   -7.8703 C   0  0  0  0  0  0
    6.6878   -3.7964   -9.1694 C   0  0  0  0  0  0
    6.3351   -1.4860   -8.1442 C   0  0  0  0  0  0
    6.7702   -0.3655   -7.0608 C   0  0  0  0  0  0
    6.0924   -0.2508   -5.6524 C   0  0  0  0  0  0
    4.7673    0.6298   -5.5191 C   0  0  0  0  0  0
    3.3731    0.0695   -5.0326 C   0  0  0  0  0  0
    2.6744   -1.0526   -5.8451 C   0  0  0  0  0  0
    2.9132   -2.5327   -5.3538 C   0  0  0  0  0  0
    4.0915   -2.7489   -4.3961 C   0  0  0  0  0  0
    3.9076   -2.3612   -2.9014 C   0  0  0  0  0  0
    2.4922   -2.3631   -2.2517 C   0  0  0  0  0  0
    2.4186   -2.7788   -0.7891 C   0  0  0  0  0  0
    1.8131   -1.0713   -2.4676 N   0  0  0  0  0  0
    4.6591   -3.3610   -2.1671 O   0  0  0  0  0  0
    1.7159   -2.9832   -4.7108 O   0  0  0  0  0  0
    8.1564   -0.6325   -6.7895 O   0  0  0  0  0  0
    3.8724   -2.4208   -8.8950 O   0  0  0  0  0  0
    2.7373   -1.8282   -9.3486 C   0  0  0  0  0  0
    1.6333   -1.9077   -8.8443 O   0  0  0  0  0  0
    3.0895   -0.9667  -10.5298 C   0  0  0  0  0  0
    2.7425    0.5137  -10.3052 C   0  0  0  0  0  0
    1.4333    0.9223  -10.9924 C   0  0  0  0  0  0
    1.3870    0.4232  -12.4179 C   0  0  0  0  0  0
    1.1660   -0.7443  -12.7209 O   0  0  0  0  0  0
    1.6099    1.3832  -13.3276 O   0  0  0  0  0  0
    2.6161    0.6915   -8.7858 C   0  0  0  0  0  0
    3.4226    0.2327   -7.9912 O   0  0  0  0  0  0
    1.5171    1.3520   -8.3959 O   0  0  0  0  0  0
    2.1029   -4.3716   -9.9901 O   0  0  0  0  0  0
    1.3694   -5.3571  -10.6295 C   0  0  0  0  0  0
    1.7790   -6.0350  -11.5628 O   0  0  0  0  0  0
   -0.0367   -5.5159  -10.0363 C   0  0  0  0  0  0
   -0.8024   -6.8121  -10.4463 C   0  0  0  0  0  0
   -1.0295   -7.0741  -11.9464 C   0  0  0  0  0  0
   -2.2280   -6.3534  -12.4929 C   0  0  0  0  0  0
   -2.1999   -5.4126  -13.2743 O   0  0  0  0  0  0
   -3.3839   -6.8661  -12.0440 O   0  0  0  0  0  0
   -0.2392   -8.1039   -9.8411 C   0  0  0  0  0  0
    0.0201   -9.0867  -10.5070 O   0  0  0  0  0  0
    0.0544   -8.0472   -8.5251 O   0  0  0  0  0  0
    1.6560   -0.6219   -1.5666 H   0  0  0  0  0  0
    0.8776   -1.2521   -2.8385 H   0  0  0  0  0  0
    5.5778   -3.2710   -2.4975 H   0  0  0  0  0  0
    1.4174   -2.2845   -4.0998 H   0  0  0  0  0  0
    8.6600   -0.4644   -7.6035 H   0  0  0  0  0  0
    2.4040    1.2560  -13.8814 H   0  0  0  0  0  0
    1.3330    2.1790   -8.9066 H   0  0  0  0  0  0
   -4.0972   -6.4701  -12.5876 H   0  0  0  0  0  0
    0.3320   -8.8986   -8.1200 H   0  0  0  0  0  0
  1  2  1  0  0  0
  2  3  1  0  0  0
  3  4  1  0  0  0
  4  5  1  0  0  0
  5  6  1  0  0  0
  5  7  1  0  0  0
  7  8  1  0  0  0
  7 39  1  0  0  0
  8  9  1  0  0  0
  8 27  1  0  0  0
  9 10  1  0  0  0
 10 11  1  0  0  0
 10 12  1  0  0  0
 12 13  1  0  0  0
 13 14  1  0  0  0
 13 26  1  0  0  0
 14 15  1  0  0  0
 15 16  1  0  0  0
 16 17  1  0  0  0
 17 18  1  0  0  0
 18 19  1  0  0  0
 18 25  1  0  0  0
 19 20  1  0  0  0
 20 21  1  0  0  0
 20 24  1  0  0  0
 21 22  1  0  0  0
 21 23  1  0  0  0
 23 51  1  0  0  0
 23 52  1  0  0  0
 24 53  1  0  0  0
 25 54  1  0  0  0
 26 55  1  0  0  0
 27 28  1  0  0  0
 28 29  2  0  0  0
 28 30  1  0  0  0
 30 31  1  0  0  0
 31 32  1  0  0  0
 31 36  1  0  0  0
 32 33  1  0  0  0
 33 34  2  0  0  0
 33 35  1  0  0  0
 35 56  1  0  0  0
 36 37  2  0  0  0
 36 38  1  0  0  0
 38 57  1  0  0  0
 39 40  1  0  0  0
 40 41  2  0  0  0
 40 42  1  0  0  0
 42 43  1  0  0  0
 43 44  1  0  0  0
 43 48  1  0  0  0
 44 45  1  0  0  0
 45 46  2  0  0  0
 45 47  1  0  0  0
 47 58  1  0  0  0
 48 49  2  0  0  0
 48 50  1  0  0  0
 50 59  1  0  0  0
M  END
>  <AUTHOR>
    GENERATED BY OPEN BABEL 2.4.1

>  <CHROM.1>
58.43696724,155.59215399,-158.78841008,150.62291695,-45.19356211,67.03459376
89.28891713,72.01838536,-58.83002251,88.73485996,-57.74364315,-86.94709891
65.48534626,120.16713476,-61.23678794,95.51674183,-16.43966140,78.11958335
-46.70700149,26.52003561,145.41107002,59.46397772,-116.33607487,27.69595652
-120.03834987,-100.62496173,-46.98712576,45.39613080,75.94724290,117.50469393
-46.57294749,-66.85916803,-165.67421145,-57.44783225,-83.29843608,-129.46311835
110.36435482,-168.29692291,174.30092821,2.64135095,-3.33180452,-8.53617139
-3.00691928,-1.11524811,-0.58947685

>  <COMPND>
    UNNAMED

>  <MASTER>
        0    0    0    0    0    0    0    0  109    0  109    0

>  <Name>
FB1.pdb

>  <RI>
0

>  <Rbt.Current_Directory>
/home/fc/tossine/F10/p3/0_clust01

>  <Rbt.Executable>
rbdock/0.1.0

>  <Rbt.Library>
librxdock.so/0.1.0

>  <Rbt.Parameter_File>
/cluster/rxdock/data/scripts/dock.prm

>  <Rbt.Receptor>
rx_4.prm

>  <SCORE>
81.2088

>  <SCORE.INTER>
14.1032

>  <SCORE.INTER.CONST>
1

>  <SCORE.INTER.POLAR>
-3.0272

>  <SCORE.INTER.REPUL>
1.08321

>  <SCORE.INTER.ROT>
32

>  <SCORE.INTER.VDW>
-18.4204

>  <SCORE.INTER.norm>
0.282064

>  <SCORE.INTRA>
53.9186

>  <SCORE.INTRA.DIHEDRAL>
71.2408

>  <SCORE.INTRA.DIHEDRAL.0>
47.3121

>  <SCORE.INTRA.POLAR>
1.32919

>  <SCORE.INTRA.POLAR.0>
-1.47808

>  <SCORE.INTRA.REPUL>
0

>  <SCORE.INTRA.REPUL.0>
0

>  <SCORE.INTRA.VDW>
13.7789

>  <SCORE.INTRA.VDW.0>
-2.78316

>  <SCORE.INTRA.norm>
1.07837

>  <SCORE.RESTR>
13.1869

>  <SCORE.RESTR.CAVITY>
13.1869

>  <SCORE.RESTR.norm>
0.263739

>  <SCORE.SYSTEM>
0

>  <SCORE.SYSTEM.CONST>
0

>  <SCORE.SYSTEM.DIHEDRAL>
0

>  <SCORE.SYSTEM.norm>
0

>  <SCORE.heavy>
50

>  <SCORE.norm>
1.62418

$$$$
