FB1.pdb
  RxDock  10062016363D
librxdock.so/0.1.0
 59 58  0  0  0  0  0  0  0  0999 V2000
  -12.7780    1.0420    3.5732 C   0  0  0  0  0  0
  -11.4295    0.9547    4.2840 C   0  0  0  0  0  0
  -11.5961    0.7165    5.7939 C   0  0  0  0  0  0
  -10.2716    0.3569    6.5123 C   0  0  0  0  0  0
  -10.3578    0.3173    8.0780 C   0  0  0  0  0  0
  -11.2566    1.4857    8.5445 C   0  0  0  0  0  0
  -10.8846   -1.0666    8.6484 C   0  0  0  0  0  0
  -10.4478   -1.4496   10.1413 C   0  0  0  0  0  0
  -11.0351   -0.7909   11.4640 C   0  0  0  0  0  0
  -10.7086    0.8153   11.6499 C   0  0  0  0  0  0
  -10.8991    1.1819   13.1208 C   0  0  0  0  0  0
   -9.2708    1.3019   11.1592 C   0  0  0  0  0  0
   -8.5202    2.6224   11.7175 C   0  0  0  0  0  0
   -7.6514    3.5470   10.7975 C   0  0  0  0  0  0
   -7.5490    5.0979   11.1628 C   0  0  0  0  0  0
   -8.6668    6.1641   10.8337 C   0  0  0  0  0  0
   -8.3929    7.2535    9.7633 C   0  0  0  0  0  0
   -7.3227    8.3522   10.1326 C   0  0  0  0  0  0
   -6.5876    8.1637   11.4655 C   0  0  0  0  0  0
   -5.7102    9.3331   11.9955 C   0  0  0  0  0  0
   -4.4441    9.7905   11.2124 C   0  0  0  0  0  0
   -3.3861   10.5377   12.0121 C   0  0  0  0  0  0
   -3.8471    8.6619   10.4734 N   0  0  0  0  0  0
   -6.5913   10.4853   11.9905 O   0  0  0  0  0  0
   -6.3527    8.3953    9.0805 O   0  0  0  0  0  0
   -9.5746    3.4667   12.2095 O   0  0  0  0  0  0
  -10.7224   -2.8687   10.2935 O   0  0  0  0  0  0
  -10.0877   -3.7147    9.4410 C   0  0  0  0  0  0
   -9.6528   -3.4344    8.3403 O   0  0  0  0  0  0
   -9.9181   -5.0424   10.1265 C   0  0  0  0  0  0
  -11.0566   -5.3471   11.1132 C   0  0  0  0  0  0
  -12.4442   -5.1797   10.4809 C   0  0  0  0  0  0
  -12.4129   -5.5012    9.0048 C   0  0  0  0  0  0
  -12.0511   -6.5826    8.5537 O   0  0  0  0  0  0
  -12.8224   -4.4872    8.2282 O   0  0  0  0  0  0
  -10.8531   -6.8027   11.5557 C   0  0  0  0  0  0
  -11.3612   -7.7523   10.9790 O   0  0  0  0  0  0
  -10.1091   -6.9459   12.6611 O   0  0  0  0  0  0
  -12.3471   -1.2075    8.4453 O   0  0  0  0  0  0
  -12.8103   -1.5054    7.1746 C   0  0  0  0  0  0
  -12.1083   -1.8975    6.2516 O   0  0  0  0  0  0
  -14.3235   -1.2903    7.0395 C   0  0  0  0  0  0
  -14.9652   -1.8050    5.7137 C   0  0  0  0  0  0
  -15.5456   -0.7639    4.7391 C   0  0  0  0  0  0
  -16.2848   -1.3850    3.5892 C   0  0  0  0  0  0
  -15.9143   -1.3925    2.4234 O   0  0  0  0  0  0
  -17.4286   -1.9729    3.9720 O   0  0  0  0  0  0
  -14.0701   -2.7429    4.8942 C   0  0  0  0  0  0
  -13.7008   -2.4842    3.7658 O   0  0  0  0  0  0
  -13.6248   -3.8364    5.5478 O   0  0  0  0  0  0
   -4.4349    8.4398    9.6710 H   0  0  0  0  0  0
   -3.8830    7.8286   11.0648 H   0  0  0  0  0  0
   -6.8052   10.6282   11.0444 H   0  0  0  0  0  0
   -6.5838    9.1307    8.4836 H   0  0  0  0  0  0
  -10.1580    3.6847   11.4634 H   0  0  0  0  0  0
  -12.6594   -4.6024    7.2723 H   0  0  0  0  0  0
   -9.8404   -6.0946   13.0876 H   0  0  0  0  0  0
  -17.8423   -2.3379    3.1615 H   0  0  0  0  0  0
  -12.9235   -4.3458    5.0842 H   0  0  0  0  0  0
  1  2  1  0  0  0
  2  3  1  0  0  0
  3  4  1  0  0  0
  4  5  1  0  0  0
  5  6  1  0  0  0
  5  7  1  0  0  0
  7  8  1  0  0  0
  7 39  1  0  0  0
  8  9  1  0  0  0
  8 27  1  0  0  0
  9 10  1  0  0  0
 10 11  1  0  0  0
 10 12  1  0  0  0
 12 13  1  0  0  0
 13 14  1  0  0  0
 13 26  1  0  0  0
 14 15  1  0  0  0
 15 16  1  0  0  0
 16 17  1  0  0  0
 17 18  1  0  0  0
 18 19  1  0  0  0
 18 25  1  0  0  0
 19 20  1  0  0  0
 20 21  1  0  0  0
 20 24  1  0  0  0
 21 22  1  0  0  0
 21 23  1  0  0  0
 23 51  1  0  0  0
 23 52  1  0  0  0
 24 53  1  0  0  0
 25 54  1  0  0  0
 26 55  1  0  0  0
 27 28  1  0  0  0
 28 29  2  0  0  0
 28 30  1  0  0  0
 30 31  1  0  0  0
 31 32  1  0  0  0
 31 36  1  0  0  0
 32 33  1  0  0  0
 33 34  2  0  0  0
 33 35  1  0  0  0
 35 56  1  0  0  0
 36 37  2  0  0  0
 36 38  1  0  0  0
 38 57  1  0  0  0
 39 40  1  0  0  0
 40 41  2  0  0  0
 40 42  1  0  0  0
 42 43  1  0  0  0
 43 44  1  0  0  0
 43 48  1  0  0  0
 44 45  1  0  0  0
 45 46  2  0  0  0
 45 47  1  0  0  0
 47 58  1  0  0  0
 48 49  2  0  0  0
 48 50  1  0  0  0
 50 59  1  0  0  0
M  END
>  <AUTHOR>
    GENERATED BY OPEN BABEL 2.4.1

>  <CHROM.1>
169.14952054,171.26742562,-39.42293739,154.93974467,74.05320084,75.67310263
-64.59083241,59.39737961,-160.93511032,-155.83708541,-143.18350372,150.53152816
-61.41461673,-79.01938761,-111.03540271,-68.98250225,4.61814319,-169.53048707
97.94479780,-64.67392000,-157.81381939,-64.29392121,73.29582117,-24.06260229
31.46334443,51.25486878,30.94502123,-90.64373639,58.06168243,169.19098229
4.18527228,13.77491457,-171.06585989,-113.59823132,-172.76458104,-118.81213563
-110.10655566,179.40392818,-169.09619887,-10.64395868,0.42372664,8.82349952
2.44875817,0.89937776,2.69485449

>  <COMPND>
    UNNAMED

>  <MASTER>
        0    0    0    0    0    0    0    0  109    0  109    0

>  <Name>
FB1.pdb

>  <RI>
0

>  <Rbt.Current_Directory>
/home/fc/tossine/F10/p3/0_clust01

>  <Rbt.Executable>
rbdock/0.1.0

>  <Rbt.Library>
librxdock.so/0.1.0

>  <Rbt.Parameter_File>
/cluster/rxdock/data/scripts/dock.prm

>  <Rbt.Receptor>
rx_1.prm

>  <SCORE>
39.2191

>  <SCORE.INTER>
11.8932

>  <SCORE.INTER.CONST>
1

>  <SCORE.INTER.POLAR>
-2.20119

>  <SCORE.INTER.REPUL>
0.969042

>  <SCORE.INTER.ROT>
32

>  <SCORE.INTER.VDW>
-22.8679

>  <SCORE.INTER.norm>
0.237865

>  <SCORE.INTRA>
14.9945

>  <SCORE.INTRA.DIHEDRAL>
18.1582

>  <SCORE.INTRA.DIHEDRAL.0>
47.3121

>  <SCORE.INTRA.POLAR>
-0.0144027

>  <SCORE.INTRA.POLAR.0>
-1.47808

>  <SCORE.INTRA.REPUL>
0

>  <SCORE.INTRA.REPUL.0>
0

>  <SCORE.INTRA.VDW>
5.96431

>  <SCORE.INTRA.VDW.0>
-2.78316

>  <SCORE.INTRA.norm>
0.299889

>  <SCORE.RESTR>
12.3314

>  <SCORE.RESTR.CAVITY>
12.3314

>  <SCORE.RESTR.norm>
0.246627

>  <SCORE.SYSTEM>
0

>  <SCORE.SYSTEM.CONST>
0

>  <SCORE.SYSTEM.DIHEDRAL>
0

>  <SCORE.SYSTEM.norm>
0

>  <SCORE.heavy>
50

>  <SCORE.norm>
0.784381

$$$$
