FB1.pdb
  RxDock  10062015593D
librxdock.so/0.1.0
 59 58  0  0  0  0  0  0  0  0999 V2000
    6.3114   -6.6027   -8.0769 C   0  0  0  0  0  0
    5.9107   -7.7337   -9.0213 C   0  0  0  0  0  0
    4.4810   -7.5491   -9.5563 C   0  0  0  0  0  0
    4.3231   -6.3194  -10.4850 C   0  0  0  0  0  0
    4.3689   -4.9306   -9.7572 C   0  0  0  0  0  0
    5.0840   -3.9202  -10.6837 C   0  0  0  0  0  0
    2.9389   -4.3932   -9.3280 C   0  0  0  0  0  0
    2.8973   -3.0224   -8.5000 C   0  0  0  0  0  0
    2.1724   -1.6889   -8.9738 C   0  0  0  0  0  0
    3.0713   -0.7153   -9.9563 C   0  0  0  0  0  0
    3.3919   -1.4828  -11.2379 C   0  0  0  0  0  0
    2.4284    0.6972  -10.3254 C   0  0  0  0  0  0
    1.0728    0.8793  -11.1901 C   0  0  0  0  0  0
    1.0464    0.7385  -12.7507 C   0  0  0  0  0  0
    1.5934    1.9536  -13.6301 C   0  0  0  0  0  0
    0.7323    3.2128  -14.0392 C   0  0  0  0  0  0
    1.2553    4.1714  -15.1415 C   0  0  0  0  0  0
    1.1004    3.6822  -16.6335 C   0  0  0  0  0  0
    1.8097    4.5240  -17.7015 C   0  0  0  0  0  0
    1.4306    6.0269  -17.8276 C   0  0  0  0  0  0
    2.1098    7.0934  -16.9183 C   0  0  0  0  0  0
    2.0749    8.5309  -17.4180 C   0  0  0  0  0  0
    1.6045    7.0034  -15.5353 N   0  0  0  0  0  0
    1.8103    6.3896  -19.1797 O   0  0  0  0  0  0
    1.5924    2.3400  -16.7115 O   0  0  0  0  0  0
    0.1856   -0.1431  -10.7060 O   0  0  0  0  0  0
    2.2748   -3.3367   -7.2248 O   0  0  0  0  0  0
    2.7535   -2.6919   -6.1291 C   0  0  0  0  0  0
    2.1786   -2.5562   -5.0659 O   0  0  0  0  0  0
    4.1645   -2.2556   -6.4123 C   0  0  0  0  0  0
    4.4325   -0.8058   -5.9780 C   0  0  0  0  0  0
    3.6254    0.2119   -6.7943 C   0  0  0  0  0  0
    4.0771    1.6244   -6.5042 C   0  0  0  0  0  0
    3.3126    2.5296   -6.1881 O   0  0  0  0  0  0
    5.4017    1.7970   -6.6238 O   0  0  0  0  0  0
    4.0325   -0.7279   -4.4982 C   0  0  0  0  0  0
    4.0649   -1.6907   -3.7469 O   0  0  0  0  0  0
    3.5953    0.4768   -4.1061 O   0  0  0  0  0  0
    2.0063   -4.3728  -10.4811 O   0  0  0  0  0  0
    1.3487   -5.5442  -10.8178 C   0  0  0  0  0  0
    1.6015   -6.6450  -10.3458 O   0  0  0  0  0  0
    0.2487   -5.3166  -11.8630 C   0  0  0  0  0  0
   -1.0367   -6.1847  -11.6936 C   0  0  0  0  0  0
   -2.1605   -6.0237  -12.7336 C   0  0  0  0  0  0
   -3.4173   -6.7538  -12.3569 C   0  0  0  0  0  0
   -3.7240   -7.1107  -11.2277 O   0  0  0  0  0  0
   -4.2184   -6.9738  -13.4106 O   0  0  0  0  0  0
   -0.7750   -7.6880  -11.5387 C   0  0  0  0  0  0
   -0.7591   -8.2477  -10.4602 O   0  0  0  0  0  0
   -0.6675   -8.3793  -12.6928 O   0  0  0  0  0  0
    0.5860    7.0347  -15.5490 H   0  0  0  0  0  0
    1.8871    7.8455  -15.0288 H   0  0  0  0  0  0
    1.1065    6.0066  -19.7447 H   0  0  0  0  0  0
    2.1907    2.2795  -17.4790 H   0  0  0  0  0  0
   -0.2073    0.1691   -9.8738 H   0  0  0  0  0  0
    5.8158    1.3342   -7.3774 H   0  0  0  0  0  0
    3.2657    0.5099   -3.1739 H   0  0  0  0  0  0
   -4.9476   -7.5480  -13.0945 H   0  0  0  0  0  0
   -0.3365   -9.3003  -12.6010 H   0  0  0  0  0  0
  1  2  1  0  0  0
  2  3  1  0  0  0
  3  4  1  0  0  0
  4  5  1  0  0  0
  5  6  1  0  0  0
  5  7  1  0  0  0
  7  8  1  0  0  0
  7 39  1  0  0  0
  8  9  1  0  0  0
  8 27  1  0  0  0
  9 10  1  0  0  0
 10 11  1  0  0  0
 10 12  1  0  0  0
 12 13  1  0  0  0
 13 14  1  0  0  0
 13 26  1  0  0  0
 14 15  1  0  0  0
 15 16  1  0  0  0
 16 17  1  0  0  0
 17 18  1  0  0  0
 18 19  1  0  0  0
 18 25  1  0  0  0
 19 20  1  0  0  0
 20 21  1  0  0  0
 20 24  1  0  0  0
 21 22  1  0  0  0
 21 23  1  0  0  0
 23 51  1  0  0  0
 23 52  1  0  0  0
 24 53  1  0  0  0
 25 54  1  0  0  0
 26 55  1  0  0  0
 27 28  1  0  0  0
 28 29  2  0  0  0
 28 30  1  0  0  0
 30 31  1  0  0  0
 31 32  1  0  0  0
 31 36  1  0  0  0
 32 33  1  0  0  0
 33 34  2  0  0  0
 33 35  1  0  0  0
 35 56  1  0  0  0
 36 37  2  0  0  0
 36 38  1  0  0  0
 38 57  1  0  0  0
 39 40  1  0  0  0
 40 41  2  0  0  0
 40 42  1  0  0  0
 42 43  1  0  0  0
 43 44  1  0  0  0
 43 48  1  0  0  0
 44 45  1  0  0  0
 45 46  2  0  0  0
 45 47  1  0  0  0
 47 58  1  0  0  0
 48 49  2  0  0  0
 48 50  1  0  0  0
 50 59  1  0  0  0
M  END
>  <AUTHOR>
    GENERATED BY OPEN BABEL 2.4.1

>  <CHROM.1>
66.61709676,-72.47076038,144.21922729,176.43588875,119.00978855,83.26908069
-85.27560024,143.41916787,62.11841425,-64.57643845,-78.18461194,-77.46104597
79.82857452,-84.36795095,-166.58165673,77.45152378,-170.79482598,-58.78769985
-132.20554140,84.70541229,158.72010562,76.43675020,-52.33009125,160.38146659
134.64790909,-65.88347857,-170.58973413,27.41517670,-128.24658374,40.11654204
175.11290870,-9.82588666,-143.55919114,-178.54197475,-171.54595646,98.73560253
20.82536150,172.94438706,169.09227404,1.96073164,-1.54166160,-10.81729331
-1.52348518,-1.02899221,-0.54912925

>  <COMPND>
    UNNAMED

>  <MASTER>
        0    0    0    0    0    0    0    0  109    0  109    0

>  <Name>
FB1.pdb

>  <RI>
0

>  <Rbt.Current_Directory>
/home/fc/tossine/F10/p3/0_clust01

>  <Rbt.Executable>
rbdock/0.1.0

>  <Rbt.Library>
librxdock.so/0.1.0

>  <Rbt.Parameter_File>
/cluster/rxdock/data/scripts/dock.prm

>  <Rbt.Receptor>
rx_0.prm

>  <SCORE>
44.7705

>  <SCORE.INTER>
11.7674

>  <SCORE.INTER.CONST>
1

>  <SCORE.INTER.POLAR>
-4.8387

>  <SCORE.INTER.REPUL>
2.65468

>  <SCORE.INTER.ROT>
32

>  <SCORE.INTER.VDW>
-22.4545

>  <SCORE.INTER.norm>
0.235347

>  <SCORE.INTRA>
26.6489

>  <SCORE.INTRA.DIHEDRAL>
20.4448

>  <SCORE.INTRA.DIHEDRAL.0>
47.3121

>  <SCORE.INTRA.POLAR>
1.47808

>  <SCORE.INTRA.POLAR.0>
-1.47808

>  <SCORE.INTRA.REPUL>
0

>  <SCORE.INTRA.REPUL.0>
0

>  <SCORE.INTRA.VDW>
11.401

>  <SCORE.INTRA.VDW.0>
-2.78316

>  <SCORE.INTRA.norm>
0.532978

>  <SCORE.RESTR>
6.35425

>  <SCORE.RESTR.CAVITY>
6.35425

>  <SCORE.RESTR.norm>
0.127085

>  <SCORE.SYSTEM>
0

>  <SCORE.SYSTEM.CONST>
0

>  <SCORE.SYSTEM.DIHEDRAL>
0

>  <SCORE.SYSTEM.norm>
0

>  <SCORE.heavy>
50

>  <SCORE.norm>
0.89541

$$$$
