FB1.pdb
  RxDock  10062015593D
librxdock.so/0.1.0
 59 58  0  0  0  0  0  0  0  0999 V2000
  -15.3498   -6.5134    6.8309 C   0  0  0  0  0  0
  -14.3834   -6.9777    7.9180 C   0  0  0  0  0  0
  -13.2350   -5.9763    8.1246 C   0  0  0  0  0  0
  -12.0059   -6.5859    8.8440 C   0  0  0  0  0  0
  -10.9429   -5.5428    9.3364 C   0  0  0  0  0  0
   -9.8894   -5.3593    8.2198 C   0  0  0  0  0  0
  -11.5721   -4.1484    9.7578 C   0  0  0  0  0  0
  -10.9420   -3.4262   11.0415 C   0  0  0  0  0  0
  -10.9336   -4.0233   12.5151 C   0  0  0  0  0  0
  -10.9645   -5.6703   12.6027 C   0  0  0  0  0  0
  -10.5705   -6.0883   14.0184 C   0  0  0  0  0  0
  -12.3410   -6.3700   12.2020 C   0  0  0  0  0  0
  -12.6406   -7.9505   12.3775 C   0  0  0  0  0  0
  -12.5721   -8.6691   13.7686 C   0  0  0  0  0  0
  -12.7909   -7.7930   15.0852 C   0  0  0  0  0  0
  -12.2678   -8.1981   16.5194 C   0  0  0  0  0  0
  -12.0960   -7.1054   17.6075 C   0  0  0  0  0  0
  -13.4046   -6.6478   18.3606 C   0  0  0  0  0  0
  -13.7959   -5.1727   18.2076 C   0  0  0  0  0  0
  -14.0664   -4.6262   16.7770 C   0  0  0  0  0  0
  -12.8917   -4.4073   15.7782 C   0  0  0  0  0  0
  -13.2481   -3.7705   14.4423 C   0  0  0  0  0  0
  -11.7788   -3.6870   16.4256 N   0  0  0  0  0  0
  -14.9076   -5.6297   16.1532 O   0  0  0  0  0  0
  -14.4892   -7.4569   17.8930 O   0  0  0  0  0  0
  -13.9972   -8.1211   11.9335 O   0  0  0  0  0  0
   -9.5387   -3.2045   10.7350 O   0  0  0  0  0  0
   -9.2263   -2.0656   10.0638 C   0  0  0  0  0  0
   -9.0999   -1.9521    8.8594 O   0  0  0  0  0  0
   -9.1605   -0.9337   11.0517 C   0  0  0  0  0  0
  -10.1806    0.1751   10.7478 C   0  0  0  0  0  0
   -9.9018    1.4629   11.5334 C   0  0  0  0  0  0
  -10.7653    1.5443   12.7708 C   0  0  0  0  0  0
  -10.7818    0.6838   13.6442 O   0  0  0  0  0  0
  -11.5163    2.6542   12.8262 O   0  0  0  0  0  0
  -10.0733    0.4456    9.2407 C   0  0  0  0  0  0
  -11.0110    0.3078    8.4699 O   0  0  0  0  0  0
   -8.8483    0.7995    8.8282 O   0  0  0  0  0  0
  -11.6667   -3.2308    8.5964 O   0  0  0  0  0  0
  -12.8456   -2.5296    8.4048 C   0  0  0  0  0  0
  -13.8394   -2.6319    9.1120 O   0  0  0  0  0  0
  -12.7768   -1.5922    7.1920 C   0  0  0  0  0  0
  -12.6165   -2.2893    5.8053 C   0  0  0  0  0  0
  -13.8685   -2.9093    5.1584 C   0  0  0  0  0  0
  -13.5541   -4.0889    4.2843 C   0  0  0  0  0  0
  -12.4971   -4.2819    3.6993 O   0  0  0  0  0  0
  -14.5718   -4.9604    4.2127 O   0  0  0  0  0  0
  -11.9320   -1.4302    4.7350 C   0  0  0  0  0  0
  -11.9816   -0.2160    4.7318 O   0  0  0  0  0  0
  -11.1736   -2.1065    3.8469 O   0  0  0  0  0  0
  -11.5451   -4.1516   17.3020 H   0  0  0  0  0  0
  -12.1063   -2.7579   16.6991 H   0  0  0  0  0  0
  -15.8095   -5.4374   16.4864 H   0  0  0  0  0  0
  -14.6949   -7.1906   16.9780 H   0  0  0  0  0  0
  -14.1555   -9.0718   11.8089 H   0  0  0  0  0  0
  -11.3775    3.2880   12.0965 H   0  0  0  0  0  0
   -8.1824    0.8931    9.5539 H   0  0  0  0  0  0
  -14.2282   -5.7573    3.7564 H   0  0  0  0  0  0
  -11.3554   -3.0708    3.7882 H   0  0  0  0  0  0
  1  2  1  0  0  0
  2  3  1  0  0  0
  3  4  1  0  0  0
  4  5  1  0  0  0
  5  6  1  0  0  0
  5  7  1  0  0  0
  7  8  1  0  0  0
  7 39  1  0  0  0
  8  9  1  0  0  0
  8 27  1  0  0  0
  9 10  1  0  0  0
 10 11  1  0  0  0
 10 12  1  0  0  0
 12 13  1  0  0  0
 13 14  1  0  0  0
 13 26  1  0  0  0
 14 15  1  0  0  0
 15 16  1  0  0  0
 16 17  1  0  0  0
 17 18  1  0  0  0
 18 19  1  0  0  0
 18 25  1  0  0  0
 19 20  1  0  0  0
 20 21  1  0  0  0
 20 24  1  0  0  0
 21 22  1  0  0  0
 21 23  1  0  0  0
 23 51  1  0  0  0
 23 52  1  0  0  0
 24 53  1  0  0  0
 25 54  1  0  0  0
 26 55  1  0  0  0
 27 28  1  0  0  0
 28 29  2  0  0  0
 28 30  1  0  0  0
 30 31  1  0  0  0
 31 32  1  0  0  0
 31 36  1  0  0  0
 32 33  1  0  0  0
 33 34  2  0  0  0
 33 35  1  0  0  0
 35 56  1  0  0  0
 36 37  2  0  0  0
 36 38  1  0  0  0
 38 57  1  0  0  0
 39 40  1  0  0  0
 40 41  2  0  0  0
 40 42  1  0  0  0
 42 43  1  0  0  0
 43 44  1  0  0  0
 43 48  1  0  0  0
 44 45  1  0  0  0
 45 46  2  0  0  0
 45 47  1  0  0  0
 47 58  1  0  0  0
 48 49  2  0  0  0
 48 50  1  0  0  0
 50 59  1  0  0  0
M  END
>  <AUTHOR>
    GENERATED BY OPEN BABEL 2.4.1

>  <CHROM.1>
-160.86930388,-167.95922065,-91.73470101,141.20190214,-61.60968038,134.40609912
27.17298064,86.34572247,164.68201115,-172.73463821,58.97416000,24.65052426
166.13843723,-157.25211670,159.17141855,79.93401441,-118.36628614,59.30596638
-71.27820724,-72.01019252,-175.50922659,80.93592081,50.67743195,-94.37260872
-119.28097955,-166.43946282,-97.86217349,120.00235052,56.72639807,-3.28187137
-3.41254176,-1.73676869,64.70776717,78.81260786,-150.37357055,-28.00041585
-27.04275478,-170.55834608,18.67532652,-12.04787087,-3.75774473,10.81299731
1.31120145,-1.16460122,-1.42335360

>  <COMPND>
    UNNAMED

>  <MASTER>
        0    0    0    0    0    0    0    0  109    0  109    0

>  <Name>
FB1.pdb

>  <RI>
0

>  <Rbt.Current_Directory>
/home/fc/tossine/F10/p3/0_clust01

>  <Rbt.Executable>
rbdock/0.1.0

>  <Rbt.Library>
librxdock.so/0.1.0

>  <Rbt.Parameter_File>
/cluster/rxdock/data/scripts/dock.prm

>  <Rbt.Receptor>
rx_0.prm

>  <SCORE>
20.3666

>  <SCORE.INTER>
-0.648878

>  <SCORE.INTER.CONST>
1

>  <SCORE.INTER.POLAR>
-3.18569

>  <SCORE.INTER.REPUL>
0.525433

>  <SCORE.INTER.ROT>
32

>  <SCORE.INTER.VDW>
-29.8447

>  <SCORE.INTER.norm>
-0.0129776

>  <SCORE.INTRA>
18.067

>  <SCORE.INTRA.DIHEDRAL>
39.4673

>  <SCORE.INTRA.DIHEDRAL.0>
47.3121

>  <SCORE.INTRA.POLAR>
0.144864

>  <SCORE.INTRA.POLAR.0>
-1.47808

>  <SCORE.INTRA.REPUL>
0

>  <SCORE.INTRA.REPUL.0>
0

>  <SCORE.INTRA.VDW>
-2.15917

>  <SCORE.INTRA.VDW.0>
-2.78316

>  <SCORE.INTRA.norm>
0.36134

>  <SCORE.RESTR>
2.94843

>  <SCORE.RESTR.CAVITY>
2.94843

>  <SCORE.RESTR.norm>
0.0589686

>  <SCORE.SYSTEM>
0

>  <SCORE.SYSTEM.CONST>
0

>  <SCORE.SYSTEM.DIHEDRAL>
0

>  <SCORE.SYSTEM.norm>
0

>  <SCORE.heavy>
50

>  <SCORE.norm>
0.407331

$$$$
