FB1.pdb
  RxDock  10062017263D
librxdock.so/0.1.0
 59 58  0  0  0  0  0  0  0  0999 V2000
    5.9796   -1.6814   -8.8285 C   0  0  0  0  0  0
    4.7124   -2.0182   -9.6109 C   0  0  0  0  0  0
    4.8471   -3.3504  -10.3668 C   0  0  0  0  0  0
    3.5295   -3.8178  -11.0340 C   0  0  0  0  0  0
    2.5826   -4.6603  -10.1098 C   0  0  0  0  0  0
    2.0585   -3.7397   -8.9835 C   0  0  0  0  0  0
    1.3812   -5.3439  -10.8891 C   0  0  0  0  0  0
    0.5120   -4.4035  -11.8516 C   0  0  0  0  0  0
    1.0623   -3.1281  -12.6255 C   0  0  0  0  0  0
    0.0423   -1.8319  -12.6518 C   0  0  0  0  0  0
    0.8786   -0.5551  -12.5841 C   0  0  0  0  0  0
   -0.9591   -1.7503  -13.8909 C   0  0  0  0  0  0
   -2.5717   -1.7593  -13.7567 C   0  0  0  0  0  0
   -3.4414   -0.4769  -13.9914 C   0  0  0  0  0  0
   -5.0055   -0.6603  -14.2544 C   0  0  0  0  0  0
   -6.0563    0.5184  -14.2218 C   0  0  0  0  0  0
   -6.7672    0.9455  -15.5332 C   0  0  0  0  0  0
   -5.9340    1.8441  -16.5270 C   0  0  0  0  0  0
   -4.6782    2.5098  -15.9507 C   0  0  0  0  0  0
   -4.4946    4.0403  -16.1564 C   0  0  0  0  0  0
   -5.6227    5.0342  -15.7504 C   0  0  0  0  0  0
   -6.9342    4.9195  -16.5148 C   0  0  0  0  0  0
   -5.8562    4.9979  -14.2942 N   0  0  0  0  0  0
   -3.3651    4.3911  -15.3168 O   0  0  0  0  0  0
   -5.5475    1.0305  -17.6398 O   0  0  0  0  0  0
   -3.0195   -2.7024  -14.7449 O   0  0  0  0  0  0
   -0.0068   -5.2649  -12.9010 O   0  0  0  0  0  0
   -0.7756   -6.3155  -12.5129 C   0  0  0  0  0  0
   -0.7112   -7.4515  -12.9426 O   0  0  0  0  0  0
   -1.6597   -5.8663  -11.3824 C   0  0  0  0  0  0
   -2.5315   -7.0039  -10.8270 C   0  0  0  0  0  0
   -1.7072   -8.2316  -10.4189 C   0  0  0  0  0  0
   -0.8575   -7.9386   -9.2043 C   0  0  0  0  0  0
    0.1057   -7.1797   -9.2174 O   0  0  0  0  0  0
   -1.2586   -8.5890   -8.1020 O   0  0  0  0  0  0
   -3.2515   -6.4238   -9.6018 C   0  0  0  0  0  0
   -3.1754   -6.9183   -8.4873 O   0  0  0  0  0  0
   -4.0144   -5.3536   -9.8640 O   0  0  0  0  0  0
    1.8238   -6.5818  -11.5757 O   0  0  0  0  0  0
    2.5526   -7.5117  -10.8531 C   0  0  0  0  0  0
    2.0637   -8.4207  -10.1951 O   0  0  0  0  0  0
    4.0656   -7.2817  -10.9643 C   0  0  0  0  0  0
    4.9232   -7.8329   -9.7831 C   0  0  0  0  0  0
    6.0370   -8.8449  -10.1085 C   0  0  0  0  0  0
    5.6869   -9.7556  -11.2497 C   0  0  0  0  0  0
    6.3184   -9.8696  -12.2913 O   0  0  0  0  0  0
    4.5828  -10.4790  -11.0089 O   0  0  0  0  0  0
    5.5401   -6.7535   -8.8850 C   0  0  0  0  0  0
    6.6200   -6.2443   -9.1113 O   0  0  0  0  0  0
    4.7555   -6.3218   -7.8754 O   0  0  0  0  0  0
   -6.5581    4.2890  -14.0860 H   0  0  0  0  0  0
   -6.2828    5.8825  -14.0096 H   0  0  0  0  0  0
   -3.2031    5.3397  -15.5050 H   0  0  0  0  0  0
   -6.3339    0.8841  -18.1973 H   0  0  0  0  0  0
   -3.9496   -2.9142  -14.5588 H   0  0  0  0  0  0
   -2.0659   -9.1281   -8.2070 H   0  0  0  0  0  0
   -3.6074   -4.7029  -10.4882 H   0  0  0  0  0  0
    4.4767  -10.5146  -10.0348 H   0  0  0  0  0  0
    3.8995   -6.7948   -7.7774 H   0  0  0  0  0  0
  1  2  1  0  0  0
  2  3  1  0  0  0
  3  4  1  0  0  0
  4  5  1  0  0  0
  5  6  1  0  0  0
  5  7  1  0  0  0
  7  8  1  0  0  0
  7 39  1  0  0  0
  8  9  1  0  0  0
  8 27  1  0  0  0
  9 10  1  0  0  0
 10 11  1  0  0  0
 10 12  1  0  0  0
 12 13  1  0  0  0
 13 14  1  0  0  0
 13 26  1  0  0  0
 14 15  1  0  0  0
 15 16  1  0  0  0
 16 17  1  0  0  0
 17 18  1  0  0  0
 18 19  1  0  0  0
 18 25  1  0  0  0
 19 20  1  0  0  0
 20 21  1  0  0  0
 20 24  1  0  0  0
 21 22  1  0  0  0
 21 23  1  0  0  0
 23 51  1  0  0  0
 23 52  1  0  0  0
 24 53  1  0  0  0
 25 54  1  0  0  0
 26 55  1  0  0  0
 27 28  1  0  0  0
 28 29  2  0  0  0
 28 30  1  0  0  0
 30 31  1  0  0  0
 31 32  1  0  0  0
 31 36  1  0  0  0
 32 33  1  0  0  0
 33 34  2  0  0  0
 33 35  1  0  0  0
 35 56  1  0  0  0
 36 37  2  0  0  0
 36 38  1  0  0  0
 38 57  1  0  0  0
 39 40  1  0  0  0
 40 41  2  0  0  0
 40 42  1  0  0  0
 42 43  1  0  0  0
 43 44  1  0  0  0
 43 48  1  0  0  0
 44 45  1  0  0  0
 45 46  2  0  0  0
 45 47  1  0  0  0
 47 58  1  0  0  0
 48 49  2  0  0  0
 48 50  1  0  0  0
 50 59  1  0  0  0
M  END
>  <AUTHOR>
    GENERATED BY OPEN BABEL 2.4.1

>  <CHROM.1>
172.99057761,-86.87706892,66.91503629,-50.26646088,30.34014845,49.07605447
-139.39675323,58.60906369,145.01057356,119.26559123,107.13292845,162.54463395
165.89220189,167.28025353,112.83388910,-78.16376184,-15.88129790,-128.94133411
74.10401898,52.73991609,-64.20413280,175.39011753,-89.44463693,-136.51244534
-177.52637554,53.89706701,68.87630387,-123.43979558,-69.22416066,-2.97729626
-41.68009485,88.50632402,155.20198703,122.40657818,-34.11597101,-88.00842393
121.14149242,-22.52832485,4.69621307,-0.17095039,-3.79944840,-11.94712816
-0.89059901,-0.19062262,-0.35090928

>  <COMPND>
    UNNAMED

>  <MASTER>
        0    0    0    0    0    0    0    0  109    0  109    0

>  <Name>
FB1.pdb

>  <RI>
0

>  <Rbt.Current_Directory>
/home/fc/tossine/F10/p3/0_clust01

>  <Rbt.Executable>
rbdock/0.1.0

>  <Rbt.Library>
librxdock.so/0.1.0

>  <Rbt.Parameter_File>
/cluster/rxdock/data/scripts/dock.prm

>  <Rbt.Receptor>
rx_2.prm

>  <SCORE>
142.545

>  <SCORE.INTER>
90.997

>  <SCORE.INTER.CONST>
1

>  <SCORE.INTER.POLAR>
-1.56541

>  <SCORE.INTER.REPUL>
0.949448

>  <SCORE.INTER.ROT>
32

>  <SCORE.INTER.VDW>
54.1722

>  <SCORE.INTER.norm>
1.81994

>  <SCORE.INTRA>
45.4196

>  <SCORE.INTRA.DIHEDRAL>
67.9109

>  <SCORE.INTRA.DIHEDRAL.0>
47.3121

>  <SCORE.INTRA.POLAR>
1.47808

>  <SCORE.INTRA.POLAR.0>
-1.47808

>  <SCORE.INTRA.REPUL>
0

>  <SCORE.INTRA.REPUL.0>
0

>  <SCORE.INTRA.VDW>
6.43872

>  <SCORE.INTRA.VDW.0>
-2.78316

>  <SCORE.INTRA.norm>
0.908393

>  <SCORE.RESTR>
6.12815

>  <SCORE.RESTR.CAVITY>
6.12815

>  <SCORE.RESTR.norm>
0.122563

>  <SCORE.SYSTEM>
0

>  <SCORE.SYSTEM.CONST>
0

>  <SCORE.SYSTEM.DIHEDRAL>
0

>  <SCORE.SYSTEM.norm>
0

>  <SCORE.heavy>
50

>  <SCORE.norm>
2.8509

$$$$
