FB1.pdb
  RxDock  10062018253D
librxdock.so/0.1.0
 59 58  0  0  0  0  0  0  0  0999 V2000
   -4.4587   -4.7219  -10.0669 C   0  0  0  0  0  0
   -4.3475   -5.7505  -11.1898 C   0  0  0  0  0  0
   -3.0181   -6.5206  -11.1270 C   0  0  0  0  0  0
   -1.9075   -5.9089  -12.0170 C   0  0  0  0  0  0
   -0.4654   -6.4661  -11.7519 C   0  0  0  0  0  0
    0.2599   -6.6021  -13.1106 C   0  0  0  0  0  0
    0.3804   -5.5800  -10.7432 C   0  0  0  0  0  0
    1.5217   -6.3265   -9.9028 C   0  0  0  0  0  0
    2.7360   -5.6080   -9.1697 C   0  0  0  0  0  0
    4.1800   -5.6910   -9.9630 C   0  0  0  0  0  0
    3.9151   -5.5909  -11.4643 C   0  0  0  0  0  0
    5.2774   -4.6131   -9.5404 C   0  0  0  0  0  0
    5.3354   -3.8975   -8.0901 C   0  0  0  0  0  0
    5.8270   -2.4216   -7.9006 C   0  0  0  0  0  0
    5.7101   -1.7647   -6.4501 C   0  0  0  0  0  0
    4.4086   -1.8096   -5.5565 C   0  0  0  0  0  0
    4.4641   -1.2838   -4.0978 C   0  0  0  0  0  0
    4.1059    0.2375   -3.8820 C   0  0  0  0  0  0
    4.6667    0.8944   -2.6145 C   0  0  0  0  0  0
    3.7346    1.8319   -1.7957 C   0  0  0  0  0  0
    2.8335    2.8779   -2.5162 C   0  0  0  0  0  0
    1.8175    3.6085   -1.6493 C   0  0  0  0  0  0
    3.6510    3.8326   -3.2886 N   0  0  0  0  0  0
    2.8097    0.9373   -1.1261 O   0  0  0  0  0  0
    4.5773    0.9679   -5.0195 O   0  0  0  0  0  0
    3.9767   -3.9037   -7.6204 O   0  0  0  0  0  0
    0.8387   -7.0497   -8.8431 O   0  0  0  0  0  0
    0.2792   -8.2430   -9.1722 C   0  0  0  0  0  0
   -0.0365   -8.6059  -10.2893 O   0  0  0  0  0  0
    0.2052   -9.0918   -7.9330 C   0  0  0  0  0  0
   -0.8065   -8.5539   -6.9086 C   0  0  0  0  0  0
   -2.2549   -8.6512   -7.4046 C   0  0  0  0  0  0
   -3.1757   -7.7910   -6.5706 C   0  0  0  0  0  0
   -3.4834   -8.0517   -5.4125 O   0  0  0  0  0  0
   -3.6272   -6.7071   -7.2187 O   0  0  0  0  0  0
   -0.6248   -9.4092   -5.6471 C   0  0  0  0  0  0
   -0.8858   -9.0053   -4.5241 O   0  0  0  0  0  0
   -0.1074  -10.6247   -5.8728 O   0  0  0  0  0  0
    0.8911   -4.3550  -11.4054 O   0  0  0  0  0  0
    1.4431   -3.3602  -10.6156 C   0  0  0  0  0  0
    1.4066   -3.3419   -9.3922 O   0  0  0  0  0  0
    2.1190   -2.2622  -11.4473 C   0  0  0  0  0  0
    2.3153   -0.8916  -10.7278 C   0  0  0  0  0  0
    1.1210   -0.3028   -9.9549 C   0  0  0  0  0  0
    1.2402    1.1769   -9.7295 C   0  0  0  0  0  0
    1.4419    1.7207   -8.6524 O   0  0  0  0  0  0
    1.1194    1.8804  -10.8657 O   0  0  0  0  0  0
    3.5326   -0.8287   -9.7970 C   0  0  0  0  0  0
    3.4361   -0.7379   -8.5890 O   0  0  0  0  0  0
    4.7303   -0.9890  -10.3978 O   0  0  0  0  0  0
    4.3183    3.3155   -3.8594 H   0  0  0  0  0  0
    4.2248    4.3730   -2.6373 H   0  0  0  0  0  0
    3.2583    0.7020   -0.2866 H   0  0  0  0  0  0
    5.5418    1.0796   -4.9309 H   0  0  0  0  0  0
    3.8313   -4.7308   -7.1313 H   0  0  0  0  0  0
   -4.0416   -6.0266   -6.6542 H   0  0  0  0  0  0
    0.2390  -11.0793   -5.0653 H   0  0  0  0  0  0
    1.1481    2.8277  -10.6144 H   0  0  0  0  0  0
    5.4991   -1.0590   -9.7893 H   0  0  0  0  0  0
  1  2  1  0  0  0
  2  3  1  0  0  0
  3  4  1  0  0  0
  4  5  1  0  0  0
  5  6  1  0  0  0
  5  7  1  0  0  0
  7  8  1  0  0  0
  7 39  1  0  0  0
  8  9  1  0  0  0
  8 27  1  0  0  0
  9 10  1  0  0  0
 10 11  1  0  0  0
 10 12  1  0  0  0
 12 13  1  0  0  0
 13 14  1  0  0  0
 13 26  1  0  0  0
 14 15  1  0  0  0
 15 16  1  0  0  0
 16 17  1  0  0  0
 17 18  1  0  0  0
 18 19  1  0  0  0
 18 25  1  0  0  0
 19 20  1  0  0  0
 20 21  1  0  0  0
 20 24  1  0  0  0
 21 22  1  0  0  0
 21 23  1  0  0  0
 23 51  1  0  0  0
 23 52  1  0  0  0
 24 53  1  0  0  0
 25 54  1  0  0  0
 26 55  1  0  0  0
 27 28  1  0  0  0
 28 29  2  0  0  0
 28 30  1  0  0  0
 30 31  1  0  0  0
 31 32  1  0  0  0
 31 36  1  0  0  0
 32 33  1  0  0  0
 33 34  2  0  0  0
 33 35  1  0  0  0
 35 56  1  0  0  0
 36 37  2  0  0  0
 36 38  1  0  0  0
 38 57  1  0  0  0
 39 40  1  0  0  0
 40 41  2  0  0  0
 40 42  1  0  0  0
 42 43  1  0  0  0
 43 44  1  0  0  0
 43 48  1  0  0  0
 44 45  1  0  0  0
 45 46  2  0  0  0
 45 47  1  0  0  0
 47 58  1  0  0  0
 48 49  2  0  0  0
 48 50  1  0  0  0
 50 59  1  0  0  0
M  END
>  <AUTHOR>
    GENERATED BY OPEN BABEL 2.4.1

>  <CHROM.1>
-94.10859739,167.41254242,141.53553965,153.01584764,161.58998088,168.68364454
-101.74674415,80.70633687,36.48124075,25.79889652,-146.61318109,174.10175610
89.36435913,-48.34241252,172.78993932,91.23417859,-156.79696485,-137.22382912
-77.33995059,-43.81498588,171.63282833,88.05127127,49.15756914,-21.63310600
68.61608484,67.11418918,-164.46237202,153.19698735,-70.87318740,-165.86039785
164.11722734,-8.82531682,159.21128938,-46.83078858,-159.52746825,-112.16725332
-110.04560845,176.20654333,-172.80166821,1.46310061,-3.62966259,-7.94009643
-2.62687299,1.03453766,1.44254862

>  <COMPND>
    UNNAMED

>  <MASTER>
        0    0    0    0    0    0    0    0  109    0  109    0

>  <Name>
FB1.pdb

>  <RI>
0

>  <Rbt.Current_Directory>
/home/fc/tossine/F10/p3/0_clust01

>  <Rbt.Executable>
rbdock/0.1.0

>  <Rbt.Library>
librxdock.so/0.1.0

>  <Rbt.Parameter_File>
/cluster/rxdock/data/scripts/dock.prm

>  <Rbt.Receptor>
rx_4.prm

>  <SCORE>
92.7786

>  <SCORE.INTER>
54.8056

>  <SCORE.INTER.CONST>
1

>  <SCORE.INTER.POLAR>
-2.15965

>  <SCORE.INTER.REPUL>
1.52455

>  <SCORE.INTER.ROT>
32

>  <SCORE.INTER.VDW>
17.1257

>  <SCORE.INTER.norm>
1.09611

>  <SCORE.INTRA>
18.6779

>  <SCORE.INTRA.DIHEDRAL>
24.3551

>  <SCORE.INTRA.DIHEDRAL.0>
47.3121

>  <SCORE.INTRA.POLAR>
1.47808

>  <SCORE.INTRA.POLAR.0>
-1.47808

>  <SCORE.INTRA.REPUL>
0.162949

>  <SCORE.INTRA.REPUL.0>
0

>  <SCORE.INTRA.VDW>
0.660172

>  <SCORE.INTRA.VDW.0>
-2.78316

>  <SCORE.INTRA.norm>
0.373559

>  <SCORE.RESTR>
19.295

>  <SCORE.RESTR.CAVITY>
19.295

>  <SCORE.RESTR.norm>
0.3859

>  <SCORE.SYSTEM>
0

>  <SCORE.SYSTEM.CONST>
0

>  <SCORE.SYSTEM.DIHEDRAL>
0

>  <SCORE.SYSTEM.norm>
0

>  <SCORE.heavy>
50

>  <SCORE.norm>
1.85557

$$$$
