FB1.pdb
  RxDock  10062017223D
librxdock.so/0.1.0
 59 58  0  0  0  0  0  0  0  0999 V2000
  -10.8196   -5.4338   14.1735 C   0  0  0  0  0  0
  -10.5345   -5.2500   12.6848 C   0  0  0  0  0  0
  -11.8304   -5.0936   11.8720 C   0  0  0  0  0  0
  -12.6240   -3.8086   12.2164 C   0  0  0  0  0  0
  -12.1026   -2.5028   11.5212 C   0  0  0  0  0  0
  -10.7489   -2.1190   12.1621 C   0  0  0  0  0  0
  -11.9675   -2.6348    9.9457 C   0  0  0  0  0  0
  -12.1465   -1.2943    9.0871 C   0  0  0  0  0  0
  -13.5397   -0.6192    8.7244 C   0  0  0  0  0  0
  -13.7770   -0.3241    7.1189 C   0  0  0  0  0  0
  -12.6786   -1.0327    6.3279 C   0  0  0  0  0  0
  -15.2043   -0.7293    6.5330 C   0  0  0  0  0  0
  -15.5217   -0.9041    4.9558 C   0  0  0  0  0  0
  -14.7642   -1.9400    4.0562 C   0  0  0  0  0  0
  -13.9933   -3.1421    4.7701 C   0  0  0  0  0  0
  -13.2941   -4.3310    4.0006 C   0  0  0  0  0  0
  -14.1562   -5.4987    3.4520 C   0  0  0  0  0  0
  -14.6590   -5.3652    1.9625 C   0  0  0  0  0  0
  -14.2670   -6.5006    1.0088 C   0  0  0  0  0  0
  -14.6523   -6.3690   -0.4921 C   0  0  0  0  0  0
  -14.5121   -5.0038   -1.2283 C   0  0  0  0  0  0
  -13.0953   -4.5518   -1.5536 C   0  0  0  0  0  0
  -15.3671   -4.9646   -2.4299 N   0  0  0  0  0  0
  -13.7447   -7.2639   -1.1844 O   0  0  0  0  0  0
  -16.0869   -5.2635    1.9858 O   0  0  0  0  0  0
  -16.9034   -1.2969    4.8982 O   0  0  0  0  0  0
  -11.4178   -0.2565    9.7974 O   0  0  0  0  0  0
  -11.2607    0.9330    9.1604 C   0  0  0  0  0  0
  -11.2723    1.1119    7.9574 O   0  0  0  0  0  0
  -11.1701    2.0193   10.1963 C   0  0  0  0  0  0
   -9.7181    2.4017   10.5253 C   0  0  0  0  0  0
   -9.5477    2.8735   11.9750 C   0  0  0  0  0  0
   -9.0939    4.3138   12.0298 C   0  0  0  0  0  0
   -8.4234    4.8475   11.1527 O   0  0  0  0  0  0
   -9.4971    4.9594   13.1340 O   0  0  0  0  0  0
   -8.8835    1.1365   10.2830 C   0  0  0  0  0  0
   -9.0090    0.1178   10.9455 O   0  0  0  0  0  0
   -7.9666    1.2562    9.3131 O   0  0  0  0  0  0
  -10.7345   -3.3707    9.5739 O   0  0  0  0  0  0
  -10.8631   -4.5749    8.9020 C   0  0  0  0  0  0
   -9.9400   -5.1772    8.3696 O   0  0  0  0  0  0
  -12.3093   -5.0874    8.8937 C   0  0  0  0  0  0
  -12.5021   -6.5640    8.4280 C   0  0  0  0  0  0
  -11.4283   -7.5936    8.8246 C   0  0  0  0  0  0
  -11.2934   -7.7574   10.3110 C   0  0  0  0  0  0
  -12.1259   -8.2622   11.0517 O   0  0  0  0  0  0
  -10.1205   -7.2983   10.7735 O   0  0  0  0  0  0
  -13.8650   -7.1716    8.7823 C   0  0  0  0  0  0
  -14.4843   -6.8659    9.7822 O   0  0  0  0  0  0
  -14.3907   -7.9969    7.8529 O   0  0  0  0  0  0
  -16.3439   -5.0320   -2.1472 H   0  0  0  0  0  0
  -15.1938   -5.8076   -2.9818 H   0  0  0  0  0  0
  -14.2825   -8.0610   -1.3759 H   0  0  0  0  0  0
  -16.4382   -6.0262    2.4811 H   0  0  0  0  0  0
  -17.1586   -1.3624    3.9628 H   0  0  0  0  0  0
   -9.1771    5.8780   13.2198 H   0  0  0  0  0  0
   -7.9848    2.1228    8.8363 H   0  0  0  0  0  0
   -9.6052   -7.0055    9.9924 H   0  0  0  0  0  0
  -13.8402   -8.1288    7.0493 H   0  0  0  0  0  0
  1  2  1  0  0  0
  2  3  1  0  0  0
  3  4  1  0  0  0
  4  5  1  0  0  0
  5  6  1  0  0  0
  5  7  1  0  0  0
  7  8  1  0  0  0
  7 39  1  0  0  0
  8  9  1  0  0  0
  8 27  1  0  0  0
  9 10  1  0  0  0
 10 11  1  0  0  0
 10 12  1  0  0  0
 12 13  1  0  0  0
 13 14  1  0  0  0
 13 26  1  0  0  0
 14 15  1  0  0  0
 15 16  1  0  0  0
 16 17  1  0  0  0
 17 18  1  0  0  0
 18 19  1  0  0  0
 18 25  1  0  0  0
 19 20  1  0  0  0
 20 21  1  0  0  0
 20 24  1  0  0  0
 21 22  1  0  0  0
 21 23  1  0  0  0
 23 51  1  0  0  0
 23 52  1  0  0  0
 24 53  1  0  0  0
 25 54  1  0  0  0
 26 55  1  0  0  0
 27 28  1  0  0  0
 28 29  2  0  0  0
 28 30  1  0  0  0
 30 31  1  0  0  0
 31 32  1  0  0  0
 31 36  1  0  0  0
 32 33  1  0  0  0
 33 34  2  0  0  0
 33 35  1  0  0  0
 35 56  1  0  0  0
 36 37  2  0  0  0
 36 38  1  0  0  0
 38 57  1  0  0  0
 39 40  1  0  0  0
 40 41  2  0  0  0
 40 42  1  0  0  0
 42 43  1  0  0  0
 43 44  1  0  0  0
 43 48  1  0  0  0
 44 45  1  0  0  0
 45 46  2  0  0  0
 45 47  1  0  0  0
 47 58  1  0  0  0
 48 49  2  0  0  0
 48 50  1  0  0  0
 50 59  1  0  0  0
M  END
>  <AUTHOR>
    GENERATED BY OPEN BABEL 2.4.1

>  <CHROM.1>
64.98972922,81.05161316,-70.80970922,151.18934810,-78.59586451,117.15529378
-126.77520507,170.69989206,10.87824281,-162.89248948,59.52674231,18.81753056
176.60186607,174.40320600,-79.02312234,92.56678918,123.00828274,-175.79661712
-54.31406562,40.92984369,73.01098720,101.81954503,63.62304786,-24.88819550
96.89774298,-149.21355876,-116.93357309,-65.15700815,-28.80502623,176.78614456
-3.89067201,168.70425158,-167.70220118,36.48461865,61.56750082,-32.12501980
68.78474190,-3.17481085,0.56089082,-12.28588404,-2.92211996,7.66157990,-0.09079853
1.20352826,2.69259965

>  <COMPND>
    UNNAMED

>  <MASTER>
        0    0    0    0    0    0    0    0  109    0  109    0

>  <Name>
FB1.pdb

>  <RI>
0

>  <Rbt.Current_Directory>
/home/fc/tossine/F10/p3/0_clust01

>  <Rbt.Executable>
rbdock/0.1.0

>  <Rbt.Library>
librxdock.so/0.1.0

>  <Rbt.Parameter_File>
/cluster/rxdock/data/scripts/dock.prm

>  <Rbt.Receptor>
rx_2.prm

>  <SCORE>
67.4219

>  <SCORE.INTER>
26.7098

>  <SCORE.INTER.CONST>
1

>  <SCORE.INTER.POLAR>
-1.55936

>  <SCORE.INTER.REPUL>
1.17228

>  <SCORE.INTER.ROT>
32

>  <SCORE.INTER.VDW>
-11.2498

>  <SCORE.INTER.norm>
0.534196

>  <SCORE.INTRA>
31.8487

>  <SCORE.INTRA.DIHEDRAL>
32.6299

>  <SCORE.INTRA.DIHEDRAL.0>
47.3121

>  <SCORE.INTRA.POLAR>
1.47808

>  <SCORE.INTRA.POLAR.0>
-1.47808

>  <SCORE.INTRA.REPUL>
0.0268819

>  <SCORE.INTRA.REPUL.0>
0

>  <SCORE.INTRA.VDW>
10.3739

>  <SCORE.INTRA.VDW.0>
-2.78316

>  <SCORE.INTRA.norm>
0.636974

>  <SCORE.RESTR>
8.8634

>  <SCORE.RESTR.CAVITY>
8.8634

>  <SCORE.RESTR.norm>
0.177268

>  <SCORE.SYSTEM>
0

>  <SCORE.SYSTEM.CONST>
0

>  <SCORE.SYSTEM.DIHEDRAL>
0

>  <SCORE.SYSTEM.norm>
0

>  <SCORE.heavy>
50

>  <SCORE.norm>
1.34844

$$$$
