FB1.pdb
  RxDock  10062017523D
librxdock.so/0.1.0
 59 58  0  0  0  0  0  0  0  0999 V2000
    2.7523   -1.5797  -11.1707 C   0  0  0  0  0  0
    1.7349   -0.5493  -10.6865 C   0  0  0  0  0  0
    1.9498   -0.1882   -9.2075 C   0  0  0  0  0  0
    1.5899   -1.3372   -8.2327 C   0  0  0  0  0  0
    2.8126   -2.1704   -7.7120 C   0  0  0  0  0  0
    2.5826   -2.4871   -6.2162 C   0  0  0  0  0  0
    3.0723   -3.4989   -8.5400 C   0  0  0  0  0  0
    4.0715   -4.5722   -7.8952 C   0  0  0  0  0  0
    4.9769   -5.5886   -8.7170 C   0  0  0  0  0  0
    4.3191   -7.0841   -8.9455 C   0  0  0  0  0  0
    5.2047   -7.8600   -9.9190 C   0  0  0  0  0  0
    4.0787   -7.9548   -7.6306 C   0  0  0  0  0  0
    4.5593   -7.5140   -6.1497 C   0  0  0  0  0  0
    3.9879   -8.1760   -4.8492 C   0  0  0  0  0  0
    3.3964   -9.6556   -4.9496 C   0  0  0  0  0  0
    1.9480  -10.0678   -4.4733 C   0  0  0  0  0  0
    1.7672  -10.7879   -3.1109 C   0  0  0  0  0  0
    0.2892  -11.1523   -2.6961 C   0  0  0  0  0  0
    0.1285  -11.9952   -1.4248 C   0  0  0  0  0  0
    0.4819  -11.3428   -0.0581 C   0  0  0  0  0  0
    1.9679  -11.1384    0.3606 C   0  0  0  0  0  0
    2.7814  -10.1658   -0.4818 C   0  0  0  0  0  0
    2.0690  -10.8064    1.7945 N   0  0  0  0  0  0
   -0.0741  -10.0054   -0.1344 O   0  0  0  0  0  0
   -0.4360   -9.9296   -2.5258 O   0  0  0  0  0  0
    5.9701   -7.7890   -6.1219 O   0  0  0  0  0  0
    5.0178   -3.8155   -7.0925 O   0  0  0  0  0  0
    6.0245   -3.1877   -7.7541 C   0  0  0  0  0  0
    6.5914   -3.5914   -8.7516 O   0  0  0  0  0  0
    6.2591   -1.8511   -7.1061 C   0  0  0  0  0  0
    5.2234   -0.7984   -7.5325 C   0  0  0  0  0  0
    5.3505    0.5079   -6.7382 C   0  0  0  0  0  0
    4.4477    0.4991   -5.5265 C   0  0  0  0  0  0
    4.2942   -0.4783   -4.8021 O   0  0  0  0  0  0
    3.8267    1.6688   -5.3144 O   0  0  0  0  0  0
    5.4795   -0.5341   -9.0226 C   0  0  0  0  0  0
    4.6596   -0.0032   -9.7563 O   0  0  0  0  0  0
    6.6623   -0.9796   -9.4680 O   0  0  0  0  0  0
    1.7959   -4.1191   -8.9713 O   0  0  0  0  0  0
    1.8153   -5.4347   -9.4033 C   0  0  0  0  0  0
    1.7908   -6.4106   -8.6648 O   0  0  0  0  0  0
    1.8710   -5.5463  -10.9326 C   0  0  0  0  0  0
    1.3228   -6.8771  -11.5351 C   0  0  0  0  0  0
    0.7570   -7.9310  -10.5657 C   0  0  0  0  0  0
    1.8042   -8.8751  -10.0494 C   0  0  0  0  0  0
    2.6834   -9.4006  -10.7183 O   0  0  0  0  0  0
    1.6979   -9.0867   -8.7287 O   0  0  0  0  0  0
    0.2919   -6.6928  -12.6557 C   0  0  0  0  0  0
   -0.1065   -5.6019  -13.0135 O   0  0  0  0  0  0
   -0.0712   -7.8215  -13.3003 O   0  0  0  0  0  0
    2.8843  -10.2134    1.9434 H   0  0  0  0  0  0
    2.2681  -11.6636    2.3150 H   0  0  0  0  0  0
    0.2758   -9.6404   -0.9745 H   0  0  0  0  0  0
   -1.3531  -10.1515   -2.2807 H   0  0  0  0  0  0
    6.0906   -8.7505   -6.1958 H   0  0  0  0  0  0
    3.2708    1.7059   -4.5125 H   0  0  0  0  0  0
    7.4179   -0.8270   -8.8479 H   0  0  0  0  0  0
    1.2729   -8.2888   -8.3492 H   0  0  0  0  0  0
    0.2994   -7.9260  -14.2047 H   0  0  0  0  0  0
  1  2  1  0  0  0
  2  3  1  0  0  0
  3  4  1  0  0  0
  4  5  1  0  0  0
  5  6  1  0  0  0
  5  7  1  0  0  0
  7  8  1  0  0  0
  7 39  1  0  0  0
  8  9  1  0  0  0
  8 27  1  0  0  0
  9 10  1  0  0  0
 10 11  1  0  0  0
 10 12  1  0  0  0
 12 13  1  0  0  0
 13 14  1  0  0  0
 13 26  1  0  0  0
 14 15  1  0  0  0
 15 16  1  0  0  0
 16 17  1  0  0  0
 17 18  1  0  0  0
 18 19  1  0  0  0
 18 25  1  0  0  0
 19 20  1  0  0  0
 20 21  1  0  0  0
 20 24  1  0  0  0
 21 22  1  0  0  0
 21 23  1  0  0  0
 23 51  1  0  0  0
 23 52  1  0  0  0
 24 53  1  0  0  0
 25 54  1  0  0  0
 26 55  1  0  0  0
 27 28  1  0  0  0
 28 29  2  0  0  0
 28 30  1  0  0  0
 30 31  1  0  0  0
 31 32  1  0  0  0
 31 36  1  0  0  0
 32 33  1  0  0  0
 33 34  2  0  0  0
 33 35  1  0  0  0
 35 56  1  0  0  0
 36 37  2  0  0  0
 36 38  1  0  0  0
 38 57  1  0  0  0
 39 40  1  0  0  0
 40 41  2  0  0  0
 40 42  1  0  0  0
 42 43  1  0  0  0
 43 44  1  0  0  0
 43 48  1  0  0  0
 44 45  1  0  0  0
 45 46  2  0  0  0
 45 47  1  0  0  0
 47 58  1  0  0  0
 48 49  2  0  0  0
 48 50  1  0  0  0
 50 59  1  0  0  0
M  END
>  <AUTHOR>
    GENERATED BY OPEN BABEL 2.4.1

>  <CHROM.1>
-69.82466983,99.37441278,140.34846077,-166.53578231,-150.94947838,-164.05330515
-94.55907900,-78.51117564,171.54105939,-5.78925471,163.12852309,24.85231671
-65.44827064,-126.01917364,-101.28220217,179.29242725,173.64626144,68.54667983
179.27311829,-75.47395603,65.23615803,-51.75596124,-149.71618719,-34.66214510
-78.85612642,172.57784910,-92.51141092,162.06599604,41.40835594,-177.09705411
-41.00290844,82.40082815,-155.92411725,1.24092591,-88.23301615,-2.68656875
-43.52251288,-26.71701614,-105.82726026,2.94186450,-5.64889838,-7.11939477
1.00164407,-1.18315579,-1.20981185

>  <COMPND>
    UNNAMED

>  <MASTER>
        0    0    0    0    0    0    0    0  109    0  109    0

>  <Name>
FB1.pdb

>  <RI>
0

>  <Rbt.Current_Directory>
/home/fc/tossine/F10/p3/0_clust01

>  <Rbt.Executable>
rbdock/0.1.0

>  <Rbt.Library>
librxdock.so/0.1.0

>  <Rbt.Parameter_File>
/cluster/rxdock/data/scripts/dock.prm

>  <Rbt.Receptor>
rx_3.prm

>  <SCORE>
96.645

>  <SCORE.INTER>
27.5245

>  <SCORE.INTER.CONST>
1

>  <SCORE.INTER.POLAR>
-1.37524

>  <SCORE.INTER.REPUL>
1.69043

>  <SCORE.INTER.ROT>
32

>  <SCORE.INTER.VDW>
-13.6519

>  <SCORE.INTER.norm>
0.55049

>  <SCORE.INTRA>
59.1769

>  <SCORE.INTRA.DIHEDRAL>
87.3245

>  <SCORE.INTRA.DIHEDRAL.0>
47.3121

>  <SCORE.INTRA.POLAR>
0.70261

>  <SCORE.INTRA.POLAR.0>
-1.47808

>  <SCORE.INTRA.REPUL>
0

>  <SCORE.INTRA.REPUL.0>
0

>  <SCORE.INTRA.VDW>
13.1258

>  <SCORE.INTRA.VDW.0>
-2.78316

>  <SCORE.INTRA.norm>
1.18354

>  <SCORE.RESTR>
9.94361

>  <SCORE.RESTR.CAVITY>
9.94361

>  <SCORE.RESTR.norm>
0.198872

>  <SCORE.SYSTEM>
0

>  <SCORE.SYSTEM.CONST>
0

>  <SCORE.SYSTEM.DIHEDRAL>
0

>  <SCORE.SYSTEM.norm>
0

>  <SCORE.heavy>
50

>  <SCORE.norm>
1.9329

$$$$
