FB1.pdb
  RxDock  10062017563D
librxdock.so/0.1.0
 59 58  0  0  0  0  0  0  0  0999 V2000
   -4.5048  -11.3564    6.9854 C   0  0  0  0  0  0
   -3.4804  -12.4884    7.0082 C   0  0  0  0  0  0
   -2.3391  -12.2437    6.0073 C   0  0  0  0  0  0
   -1.5329  -10.9523    6.2935 C   0  0  0  0  0  0
   -1.2672  -10.0469    5.0405 C   0  0  0  0  0  0
   -0.8360   -8.6471    5.5357 C   0  0  0  0  0  0
   -0.1940  -10.6501    4.0394 C   0  0  0  0  0  0
   -0.4992  -10.5038    2.4737 C   0  0  0  0  0  0
   -1.0379   -9.1859    1.7657 C   0  0  0  0  0  0
   -2.6781   -9.0091    1.7720 C   0  0  0  0  0  0
   -3.2453   -9.7010    0.5336 C   0  0  0  0  0  0
   -3.4369   -9.5345    3.0731 C   0  0  0  0  0  0
   -5.0001   -9.2571    3.3861 C   0  0  0  0  0  0
   -6.0634   -9.0665    2.2507 C   0  0  0  0  0  0
   -5.9986   -7.7378    1.3678 C   0  0  0  0  0  0
   -4.8487   -6.6597    1.4675 C   0  0  0  0  0  0
   -4.2372   -6.0715    0.1685 C   0  0  0  0  0  0
   -5.2548   -5.6351   -0.9555 C   0  0  0  0  0  0
   -6.2190   -4.4982   -0.5949 C   0  0  0  0  0  0
   -7.0517   -3.8477   -1.7358 C   0  0  0  0  0  0
   -6.4066   -3.5672   -3.1253 C   0  0  0  0  0  0
   -6.2893   -4.7551   -4.0701 C   0  0  0  0  0  0
   -7.0662   -2.4275   -3.7904 N   0  0  0  0  0  0
   -8.1163   -4.7966   -2.0008 O   0  0  0  0  0  0
   -4.4996   -5.2429   -2.1069 O   0  0  0  0  0  0
   -5.4400  -10.4109    4.1222 O   0  0  0  0  0  0
    0.7480  -10.7967    1.7874 O   0  0  0  0  0  0
    0.6664  -11.1197    0.4705 C   0  0  0  0  0  0
   -0.1790  -10.7332   -0.3140 O   0  0  0  0  0  0
    1.8604  -11.9606    0.1117 C   0  0  0  0  0  0
    2.9143  -11.1785   -0.6884 C   0  0  0  0  0  0
    2.3018  -10.3828   -1.8482 C   0  0  0  0  0  0
    3.3081  -10.1714   -2.9555 C   0  0  0  0  0  0
    4.4467   -9.7568   -2.7673 O   0  0  0  0  0  0
    2.8373  -10.4834   -4.1720 O   0  0  0  0  0  0
    3.5788  -10.2221    0.3115 C   0  0  0  0  0  0
    3.0192   -9.8159    1.3187 O   0  0  0  0  0  0
    4.8113   -9.8273   -0.0362 O   0  0  0  0  0  0
    1.1747  -10.1928    4.3824 O   0  0  0  0  0  0
    2.2506  -10.9478    3.9459 C   0  0  0  0  0  0
    2.1644  -12.0709    3.4668 O   0  0  0  0  0  0
    3.5879  -10.2178    4.1273 C   0  0  0  0  0  0
    4.8481  -11.1308    4.2404 C   0  0  0  0  0  0
    6.0132  -10.6494    5.1243 C   0  0  0  0  0  0
    5.5919   -9.6368    6.1498 C   0  0  0  0  0  0
    6.0657   -8.5169    6.2834 O   0  0  0  0  0  0
    4.5937  -10.0804    6.9291 O   0  0  0  0  0  0
    4.5503  -12.5827    4.6349 C   0  0  0  0  0  0
    5.0761  -13.5352    4.0935 O   0  0  0  0  0  0
    3.7402  -12.7384    5.7029 O   0  0  0  0  0  0
   -6.7867   -1.5635   -3.3280 H   0  0  0  0  0  0
   -8.0742   -2.4963   -3.6332 H   0  0  0  0  0  0
   -7.6544   -5.6449   -2.1690 H   0  0  0  0  0  0
   -4.1241   -4.3592   -1.9378 H   0  0  0  0  0  0
   -6.3800  -10.2899    4.3375 H   0  0  0  0  0  0
    3.4629  -10.3449   -4.9089 H   0  0  0  0  0  0
    4.9292   -9.6554   -1.0034 H   0  0  0  0  0  0
    4.3095  -10.9425    6.5587 H   0  0  0  0  0  0
    3.6104  -13.6665    5.9995 H   0  0  0  0  0  0
  1  2  1  0  0  0
  2  3  1  0  0  0
  3  4  1  0  0  0
  4  5  1  0  0  0
  5  6  1  0  0  0
  5  7  1  0  0  0
  7  8  1  0  0  0
  7 39  1  0  0  0
  8  9  1  0  0  0
  8 27  1  0  0  0
  9 10  1  0  0  0
 10 11  1  0  0  0
 10 12  1  0  0  0
 12 13  1  0  0  0
 13 14  1  0  0  0
 13 26  1  0  0  0
 14 15  1  0  0  0
 15 16  1  0  0  0
 16 17  1  0  0  0
 17 18  1  0  0  0
 18 19  1  0  0  0
 18 25  1  0  0  0
 19 20  1  0  0  0
 20 21  1  0  0  0
 20 24  1  0  0  0
 21 22  1  0  0  0
 21 23  1  0  0  0
 23 51  1  0  0  0
 23 52  1  0  0  0
 24 53  1  0  0  0
 25 54  1  0  0  0
 26 55  1  0  0  0
 27 28  1  0  0  0
 28 29  2  0  0  0
 28 30  1  0  0  0
 30 31  1  0  0  0
 31 32  1  0  0  0
 31 36  1  0  0  0
 32 33  1  0  0  0
 33 34  2  0  0  0
 33 35  1  0  0  0
 35 56  1  0  0  0
 36 37  2  0  0  0
 36 38  1  0  0  0
 38 57  1  0  0  0
 39 40  1  0  0  0
 40 41  2  0  0  0
 40 42  1  0  0  0
 42 43  1  0  0  0
 43 44  1  0  0  0
 43 48  1  0  0  0
 44 45  1  0  0  0
 45 46  2  0  0  0
 45 47  1  0  0  0
 47 58  1  0  0  0
 48 49  2  0  0  0
 48 50  1  0  0  0
 50 59  1  0  0  0
M  END
>  <AUTHOR>
    GENERATED BY OPEN BABEL 2.4.1

>  <CHROM.1>
60.94639325,-133.22019442,163.79231765,139.37773191,44.04739100,157.85940875
-86.24873194,161.31725006,-88.44482514,170.21871061,29.39812963,-69.70103152
179.84305601,6.14267185,135.97093806,45.43561296,63.18801351,168.57631398
-76.07749769,-40.38479028,79.66004607,-53.86301845,73.19427835,29.61832165
-104.60431672,-47.68763303,-153.49990828,-26.00866372,-48.88769993,179.20624384
38.58200798,-11.40473766,155.55338928,-147.70591401,21.65184229,136.07357505
-123.63640360,-6.49665376,-175.15000739,-0.55078432,-9.32803162,1.88035554
2.55578483,0.31639088,-1.18055745

>  <COMPND>
    UNNAMED

>  <MASTER>
        0    0    0    0    0    0    0    0  109    0  109    0

>  <Name>
FB1.pdb

>  <RI>
0

>  <Rbt.Current_Directory>
/home/fc/tossine/F10/p3/0_clust01

>  <Rbt.Executable>
rbdock/0.1.0

>  <Rbt.Library>
librxdock.so/0.1.0

>  <Rbt.Parameter_File>
/cluster/rxdock/data/scripts/dock.prm

>  <Rbt.Receptor>
rx_3.prm

>  <SCORE>
39.2056

>  <SCORE.INTER>
8.98829

>  <SCORE.INTER.CONST>
1

>  <SCORE.INTER.POLAR>
-1.57576

>  <SCORE.INTER.REPUL>
0.439938

>  <SCORE.INTER.ROT>
32

>  <SCORE.INTER.VDW>
-25.2538

>  <SCORE.INTER.norm>
0.179766

>  <SCORE.INTRA>
22.4175

>  <SCORE.INTRA.DIHEDRAL>
31.0336

>  <SCORE.INTRA.DIHEDRAL.0>
47.3121

>  <SCORE.INTRA.POLAR>
-0.158444

>  <SCORE.INTRA.POLAR.0>
-1.47808

>  <SCORE.INTRA.REPUL>
0

>  <SCORE.INTRA.REPUL.0>
0

>  <SCORE.INTRA.VDW>
7.43941

>  <SCORE.INTRA.VDW.0>
-2.78316

>  <SCORE.INTRA.norm>
0.44835

>  <SCORE.RESTR>
7.79986

>  <SCORE.RESTR.CAVITY>
7.79986

>  <SCORE.RESTR.norm>
0.155997

>  <SCORE.SYSTEM>
0

>  <SCORE.SYSTEM.CONST>
0

>  <SCORE.SYSTEM.DIHEDRAL>
0

>  <SCORE.SYSTEM.norm>
0

>  <SCORE.heavy>
50

>  <SCORE.norm>
0.784112

$$$$
