FB1.pdb
  RxDock  10062018243D
librxdock.so/0.1.0
 59 58  0  0  0  0  0  0  0  0999 V2000
    7.6182   -3.9672   -8.6005 C   0  0  0  0  0  0
    6.7332   -3.4884   -9.7488 C   0  0  0  0  0  0
    5.4175   -2.8786   -9.2376 C   0  0  0  0  0  0
    4.4168   -2.5324  -10.3683 C   0  0  0  0  0  0
    3.8344   -3.7690  -11.1378 C   0  0  0  0  0  0
    4.9171   -4.2890  -12.1114 C   0  0  0  0  0  0
    3.3274   -4.9288  -10.1809 C   0  0  0  0  0  0
    2.9494   -4.5177   -8.6795 C   0  0  0  0  0  0
    3.8887   -4.7170   -7.4122 C   0  0  0  0  0  0
    4.4223   -6.2595   -7.1726 C   0  0  0  0  0  0
    5.5664   -6.5338   -8.1473 C   0  0  0  0  0  0
    4.8849   -6.6211   -5.6894 C   0  0  0  0  0  0
    4.9264   -8.1248   -5.0928 C   0  0  0  0  0  0
    5.4792   -8.4459   -3.6619 C   0  0  0  0  0  0
    5.3057   -9.9297   -3.0984 C   0  0  0  0  0  0
    3.9168  -10.6669   -2.9495 C   0  0  0  0  0  0
    2.8579  -10.1106   -1.9613 C   0  0  0  0  0  0
    1.3554  -10.5002   -2.2441 C   0  0  0  0  0  0
    1.0483  -11.0523   -3.6418 C   0  0  0  0  0  0
    0.3186  -10.1266   -4.6562 C   0  0  0  0  0  0
   -1.0726   -9.5171   -4.3125 C   0  0  0  0  0  0
   -1.8374   -8.8817   -5.4652 C   0  0  0  0  0  0
   -1.9134  -10.4964   -3.5980 N   0  0  0  0  0  0
    1.2002   -8.9855   -4.8126 O   0  0  0  0  0  0
    0.9619  -11.4760   -1.2732 O   0  0  0  0  0  0
    3.5536   -8.5509   -5.0690 O   0  0  0  0  0  0
    2.6779   -3.0901   -8.7052 O   0  0  0  0  0  0
    1.7500   -2.6228   -7.8300 C   0  0  0  0  0  0
    1.0948   -3.2897   -7.0520 O   0  0  0  0  0  0
    1.7357   -1.1211   -7.9082 C   0  0  0  0  0  0
    2.7751   -0.4718   -6.9805 C   0  0  0  0  0  0
    2.2057    0.7215   -6.2026 C   0  0  0  0  0  0
    3.2307    1.2893   -5.2484 C   0  0  0  0  0  0
    3.3429    0.9304   -4.0812 O   0  0  0  0  0  0
    4.0131    2.2279   -5.8012 O   0  0  0  0  0  0
    3.2162   -1.5722   -6.0056 C   0  0  0  0  0  0
    2.5671   -1.8900   -5.0206 O   0  0  0  0  0  0
    4.4016   -2.1257   -6.2959 O   0  0  0  0  0  0
    2.2534   -5.7234  -10.8252 O   0  0  0  0  0  0
    2.2945   -7.1029  -10.7097 C   0  0  0  0  0  0
    3.3211   -7.7644  -10.6267 O   0  0  0  0  0  0
    0.8941   -7.7296  -10.6955 C   0  0  0  0  0  0
    0.0263   -7.4777  -11.9676 C   0  0  0  0  0  0
   -1.5048   -7.5548  -11.8256 C   0  0  0  0  0  0
   -2.0525   -6.5672  -10.8360 C   0  0  0  0  0  0
   -1.5061   -6.2191   -9.7983 O   0  0  0  0  0  0
   -3.2371   -6.0640  -11.2152 O   0  0  0  0  0  0
    0.3473   -6.1750  -12.7107 C   0  0  0  0  0  0
    0.8329   -6.1527  -13.8244 O   0  0  0  0  0  0
   -0.0445   -5.0424  -12.0902 O   0  0  0  0  0  0
   -1.3365  -11.2863   -3.3121 H   0  0  0  0  0  0
   -2.5894  -10.8889   -4.2571 H   0  0  0  0  0  0
    1.7803   -9.2234   -5.5664 H   0  0  0  0  0  0
    0.6864  -11.0064   -0.4644 H   0  0  0  0  0  0
    3.1210   -8.1291   -4.3079 H   0  0  0  0  0  0
    4.2655    2.0656   -6.7304 H   0  0  0  0  0  0
    5.1707   -1.7181   -5.8257 H   0  0  0  0  0  0
   -3.7504   -6.8082  -11.5947 H   0  0  0  0  0  0
   -0.8261   -4.5962  -12.4855 H   0  0  0  0  0  0
  1  2  1  0  0  0
  2  3  1  0  0  0
  3  4  1  0  0  0
  4  5  1  0  0  0
  5  6  1  0  0  0
  5  7  1  0  0  0
  7  8  1  0  0  0
  7 39  1  0  0  0
  8  9  1  0  0  0
  8 27  1  0  0  0
  9 10  1  0  0  0
 10 11  1  0  0  0
 10 12  1  0  0  0
 12 13  1  0  0  0
 13 14  1  0  0  0
 13 26  1  0  0  0
 14 15  1  0  0  0
 15 16  1  0  0  0
 16 17  1  0  0  0
 17 18  1  0  0  0
 18 19  1  0  0  0
 18 25  1  0  0  0
 19 20  1  0  0  0
 20 21  1  0  0  0
 20 24  1  0  0  0
 21 22  1  0  0  0
 21 23  1  0  0  0
 23 51  1  0  0  0
 23 52  1  0  0  0
 24 53  1  0  0  0
 25 54  1  0  0  0
 26 55  1  0  0  0
 27 28  1  0  0  0
 28 29  2  0  0  0
 28 30  1  0  0  0
 30 31  1  0  0  0
 31 32  1  0  0  0
 31 36  1  0  0  0
 32 33  1  0  0  0
 33 34  2  0  0  0
 33 35  1  0  0  0
 35 56  1  0  0  0
 36 37  2  0  0  0
 36 38  1  0  0  0
 38 57  1  0  0  0
 39 40  1  0  0  0
 40 41  2  0  0  0
 40 42  1  0  0  0
 42 43  1  0  0  0
 43 44  1  0  0  0
 43 48  1  0  0  0
 44 45  1  0  0  0
 45 46  2  0  0  0
 45 47  1  0  0  0
 47 58  1  0  0  0
 48 49  2  0  0  0
 48 50  1  0  0  0
 50 59  1  0  0  0
M  END
>  <AUTHOR>
    GENERATED BY OPEN BABEL 2.4.1

>  <CHROM.1>
-173.17604887,66.90668870,-76.54518941,22.49709619,-99.69757536,136.71348306
-55.05764749,148.11454534,78.02608716,156.87931683,175.76250850,172.36376124
-77.07524984,-57.09433622,-64.34071994,156.80785345,-16.00028521,-105.18206983
83.97414665,-57.80320959,-167.15829302,90.96559053,11.86187048,-2.28317329
-86.77328072,-135.34930740,177.00528551,-80.52471451,-91.58375126,-37.50932655
94.07352650,-31.31628103,60.48144357,-155.74260852,59.55449777,113.29748340
-35.59139458,40.50164417,-106.40680385,2.35172903,-5.64253032,-7.47109555
-1.21522996,1.01022960,2.27087658

>  <COMPND>
    UNNAMED

>  <MASTER>
        0    0    0    0    0    0    0    0  109    0  109    0

>  <Name>
FB1.pdb

>  <RI>
0

>  <Rbt.Current_Directory>
/home/fc/tossine/F10/p3/0_clust01

>  <Rbt.Executable>
rbdock/0.1.0

>  <Rbt.Library>
librxdock.so/0.1.0

>  <Rbt.Parameter_File>
/cluster/rxdock/data/scripts/dock.prm

>  <Rbt.Receptor>
rx_4.prm

>  <SCORE>
93.7891

>  <SCORE.INTER>
28.2461

>  <SCORE.INTER.CONST>
1

>  <SCORE.INTER.POLAR>
-1.46285

>  <SCORE.INTER.REPUL>
0.98657

>  <SCORE.INTER.ROT>
32

>  <SCORE.INTER.VDW>
-9.113

>  <SCORE.INTER.norm>
0.564923

>  <SCORE.INTRA>
52.1837

>  <SCORE.INTRA.DIHEDRAL>
83.2359

>  <SCORE.INTRA.DIHEDRAL.0>
47.3121

>  <SCORE.INTRA.POLAR>
1.38045

>  <SCORE.INTRA.POLAR.0>
-1.47808

>  <SCORE.INTRA.REPUL>
0

>  <SCORE.INTRA.REPUL.0>
0

>  <SCORE.INTRA.VDW>
5.87228

>  <SCORE.INTRA.VDW.0>
-2.78316

>  <SCORE.INTRA.norm>
1.04367

>  <SCORE.RESTR>
13.3592

>  <SCORE.RESTR.CAVITY>
13.3592

>  <SCORE.RESTR.norm>
0.267184

>  <SCORE.SYSTEM>
0

>  <SCORE.SYSTEM.CONST>
0

>  <SCORE.SYSTEM.DIHEDRAL>
0

>  <SCORE.SYSTEM.norm>
0

>  <SCORE.heavy>
50

>  <SCORE.norm>
1.87578

$$$$
