FB1.pdb
  RxDock  10062016303D
librxdock.so/0.1.0
 59 58  0  0  0  0  0  0  0  0999 V2000
   -9.4102    3.3605   11.6447 C   0  0  0  0  0  0
   -9.9640    1.9500   11.8325 C   0  0  0  0  0  0
  -10.6732    1.4434   10.5658 C   0  0  0  0  0  0
  -11.1509   -0.0264   10.6714 C   0  0  0  0  0  0
  -10.4975   -1.0101    9.6390 C   0  0  0  0  0  0
   -8.9641   -0.8183    9.6889 C   0  0  0  0  0  0
  -10.8874   -2.5296    9.8780 C   0  0  0  0  0  0
  -12.4266   -2.9244    9.6750 C   0  0  0  0  0  0
  -13.0203   -3.6677    8.4008 C   0  0  0  0  0  0
  -13.1310   -2.7422    7.0397 C   0  0  0  0  0  0
  -11.8084   -2.0019    6.8475 C   0  0  0  0  0  0
  -13.5136   -3.5116    5.6956 C   0  0  0  0  0  0
  -14.8840   -3.2693    4.8698 C   0  0  0  0  0  0
  -14.9577   -2.3218    3.6237 C   0  0  0  0  0  0
  -14.8454   -0.7470    3.8620 C   0  0  0  0  0  0
  -13.5179   -0.0052    4.2884 C   0  0  0  0  0  0
  -12.2881   -0.0345    3.3428 C   0  0  0  0  0  0
  -11.7422    1.3620    2.8518 C   0  0  0  0  0  0
  -10.8298    2.1159    3.8273 C   0  0  0  0  0  0
  -11.3240    2.3253    5.2869 C   0  0  0  0  0  0
  -11.3228    1.1427    6.3001 C   0  0  0  0  0  0
   -9.9843    0.4591    6.5420 C   0  0  0  0  0  0
  -11.9489    1.5422    7.5748 N   0  0  0  0  0  0
  -10.4095    3.3014    5.8480 O   0  0  0  0  0  0
  -11.0264    1.1516    1.6299 O   0  0  0  0  0  0
  -15.2523   -4.5681    4.3759 O   0  0  0  0  0  0
  -12.7750   -3.7887   10.7904 O   0  0  0  0  0  0
  -12.3164   -3.4277   12.0171 C   0  0  0  0  0  0
  -12.8828   -2.7016   12.8118 O   0  0  0  0  0  0
  -11.0287   -4.1591   12.2781 C   0  0  0  0  0  0
  -10.8038   -4.4440   13.7716 C   0  0  0  0  0  0
  -11.1379   -3.2372   14.6579 C   0  0  0  0  0  0
  -10.1959   -2.0865   14.3898 C   0  0  0  0  0  0
   -9.3087   -1.7420   15.1629 O   0  0  0  0  0  0
  -10.4210   -1.4736   13.2182 O   0  0  0  0  0  0
  -11.7242   -5.6221   14.1196 C   0  0  0  0  0  0
  -11.3097   -6.7503   14.3381 O   0  0  0  0  0  0
  -13.0305   -5.3231   14.1160 O   0  0  0  0  0  0
   -9.9796   -3.4383    9.1363 O   0  0  0  0  0  0
   -9.8421   -4.7418    9.5838 C   0  0  0  0  0  0
   -9.2266   -5.0716   10.5891 O   0  0  0  0  0  0
  -10.5549   -5.7500    8.6728 C   0  0  0  0  0  0
  -11.9113   -6.3053    9.2078 C   0  0  0  0  0  0
  -12.7132   -7.2546    8.2988 C   0  0  0  0  0  0
  -14.0854   -7.5549    8.8294 C   0  0  0  0  0  0
  -15.1163   -6.9801    8.5079 O   0  0  0  0  0  0
  -14.0844   -8.5655    9.7120 O   0  0  0  0  0  0
  -11.8299   -6.9636   10.5906 C   0  0  0  0  0  0
  -12.2459   -6.4313   11.6008 O   0  0  0  0  0  0
  -11.3598   -8.2285   10.6034 O   0  0  0  0  0  0
  -12.5084    0.7677    7.9293 H   0  0  0  0  0  0
  -12.6215    2.2894    7.3883 H   0  0  0  0  0  0
   -9.5281    2.8760    5.7892 H   0  0  0  0  0  0
  -11.6765    1.0285    0.9138 H   0  0  0  0  0  0
  -14.5943   -4.8353    3.7125 H   0  0  0  0  0  0
   -9.7713   -0.7859   12.9763 H   0  0  0  0  0  0
  -13.2306   -4.3604   14.0071 H   0  0  0  0  0  0
  -13.1454   -8.7939    9.8771 H   0  0  0  0  0  0
  -11.0992   -8.5705   11.4873 H   0  0  0  0  0  0
  1  2  1  0  0  0
  2  3  1  0  0  0
  3  4  1  0  0  0
  4  5  1  0  0  0
  5  6  1  0  0  0
  5  7  1  0  0  0
  7  8  1  0  0  0
  7 39  1  0  0  0
  8  9  1  0  0  0
  8 27  1  0  0  0
  9 10  1  0  0  0
 10 11  1  0  0  0
 10 12  1  0  0  0
 12 13  1  0  0  0
 13 14  1  0  0  0
 13 26  1  0  0  0
 14 15  1  0  0  0
 15 16  1  0  0  0
 16 17  1  0  0  0
 17 18  1  0  0  0
 18 19  1  0  0  0
 18 25  1  0  0  0
 19 20  1  0  0  0
 20 21  1  0  0  0
 20 24  1  0  0  0
 21 22  1  0  0  0
 21 23  1  0  0  0
 23 51  1  0  0  0
 23 52  1  0  0  0
 24 53  1  0  0  0
 25 54  1  0  0  0
 26 55  1  0  0  0
 27 28  1  0  0  0
 28 29  2  0  0  0
 28 30  1  0  0  0
 30 31  1  0  0  0
 31 32  1  0  0  0
 31 36  1  0  0  0
 32 33  1  0  0  0
 33 34  2  0  0  0
 33 35  1  0  0  0
 35 56  1  0  0  0
 36 37  2  0  0  0
 36 38  1  0  0  0
 38 57  1  0  0  0
 39 40  1  0  0  0
 40 41  2  0  0  0
 40 42  1  0  0  0
 42 43  1  0  0  0
 43 44  1  0  0  0
 43 48  1  0  0  0
 44 45  1  0  0  0
 45 46  2  0  0  0
 45 47  1  0  0  0
 47 58  1  0  0  0
 48 49  2  0  0  0
 48 50  1  0  0  0
 50 59  1  0  0  0
M  END
>  <AUTHOR>
    GENERATED BY OPEN BABEL 2.4.1

>  <CHROM.1>
175.33526847,-117.86135524,49.96545491,65.19045279,102.51243945,156.76610232
-73.26971452,42.44868913,47.19916355,115.05194141,97.31409207,-70.97013596
-67.89528542,70.98816795,62.59335196,121.11470447,81.13908514,-51.36609586
76.55489273,74.71214769,57.28357259,-60.27799307,141.02493433,89.16082359
-149.67907644,-43.72017473,-65.23371146,107.68003641,-107.07432737,-174.02388426
-7.60580347,-73.24663494,-103.47843593,176.35177565,-171.30197652,105.24702246
95.87454513,6.80047264,165.56403946,-11.79127912,-2.64848066,9.06345678,-1.67263146
1.10912757,2.30356227

>  <COMPND>
    UNNAMED

>  <MASTER>
        0    0    0    0    0    0    0    0  109    0  109    0

>  <Name>
FB1.pdb

>  <RI>
0

>  <Rbt.Current_Directory>
/home/fc/tossine/F10/p3/0_clust01

>  <Rbt.Executable>
rbdock/0.1.0

>  <Rbt.Library>
librxdock.so/0.1.0

>  <Rbt.Parameter_File>
/cluster/rxdock/data/scripts/dock.prm

>  <Rbt.Receptor>
rx_1.prm

>  <SCORE>
68.5579

>  <SCORE.INTER>
24.9741

>  <SCORE.INTER.CONST>
1

>  <SCORE.INTER.POLAR>
-2.29157

>  <SCORE.INTER.REPUL>
1.03164

>  <SCORE.INTER.ROT>
32

>  <SCORE.INTER.VDW>
-9.79278

>  <SCORE.INTER.norm>
0.499482

>  <SCORE.INTRA>
33.7576

>  <SCORE.INTRA.DIHEDRAL>
51.7604

>  <SCORE.INTRA.DIHEDRAL.0>
47.3121

>  <SCORE.INTRA.POLAR>
0.818269

>  <SCORE.INTRA.POLAR.0>
-1.47808

>  <SCORE.INTRA.REPUL>
0

>  <SCORE.INTRA.REPUL.0>
0

>  <SCORE.INTRA.VDW>
5.09528

>  <SCORE.INTRA.VDW.0>
-2.78316

>  <SCORE.INTRA.norm>
0.675152

>  <SCORE.RESTR>
9.82624

>  <SCORE.RESTR.CAVITY>
9.82624

>  <SCORE.RESTR.norm>
0.196525

>  <SCORE.SYSTEM>
0

>  <SCORE.SYSTEM.CONST>
0

>  <SCORE.SYSTEM.DIHEDRAL>
0

>  <SCORE.SYSTEM.norm>
0

>  <SCORE.heavy>
50

>  <SCORE.norm>
1.37116

$$$$
