FB1.pdb
  RxDock  10062016323D
librxdock.so/0.1.0
 59 58  0  0  0  0  0  0  0  0999 V2000
  -14.9349   -0.2834    2.2493 C   0  0  0  0  0  0
  -15.3741    0.4216    3.5305 C   0  0  0  0  0  0
  -15.2248   -0.4883    4.7609 C   0  0  0  0  0  0
  -13.7570   -0.6653    5.2236 C   0  0  0  0  0  0
  -13.4795   -1.9618    6.0618 C   0  0  0  0  0  0
  -12.8311   -3.0123    5.1308 C   0  0  0  0  0  0
  -12.5792   -1.7067    7.3433 C   0  0  0  0  0  0
  -12.2956   -2.9651    8.2932 C   0  0  0  0  0  0
  -13.1659   -4.2953    8.3339 C   0  0  0  0  0  0
  -13.1293   -5.1114    9.7671 C   0  0  0  0  0  0
  -13.6701   -4.1934   10.8620 C   0  0  0  0  0  0
  -13.9076   -6.5034    9.8035 C   0  0  0  0  0  0
  -13.6999   -7.6880    8.7208 C   0  0  0  0  0  0
  -14.5484   -7.7833    7.4066 C   0  0  0  0  0  0
  -14.6741   -6.4819    6.4902 C   0  0  0  0  0  0
  -16.0280   -5.9641    5.8631 C   0  0  0  0  0  0
  -16.0146   -5.2882    4.4665 C   0  0  0  0  0  0
  -14.5994   -5.0556    3.8089 C   0  0  0  0  0  0
  -13.7914   -6.3150    3.4723 C   0  0  0  0  0  0
  -14.0052   -6.9787    2.0822 C   0  0  0  0  0  0
  -13.7211   -6.1836    0.7736 C   0  0  0  0  0  0
  -13.1030   -6.9682   -0.3752 C   0  0  0  0  0  0
  -14.9253   -5.4569    0.3282 N   0  0  0  0  0  0
  -13.0719   -8.0886    2.0573 O   0  0  0  0  0  0
  -14.7897   -4.3024    2.6063 O   0  0  0  0  0  0
  -12.3387   -7.5507    8.2794 O   0  0  0  0  0  0
  -10.9540   -3.4226    7.9719 O   0  0  0  0  0  0
  -10.1610   -3.7875    9.0126 C   0  0  0  0  0  0
   -9.4924   -3.0424    9.7034 O   0  0  0  0  0  0
  -10.3232   -5.2652    9.2394 C   0  0  0  0  0  0
   -9.7167   -5.7278   10.5738 C   0  0  0  0  0  0
  -10.3862   -5.0664   11.7853 C   0  0  0  0  0  0
  -11.1935   -6.0690   12.5768 C   0  0  0  0  0  0
  -12.3556   -6.3612   12.3162 O   0  0  0  0  0  0
  -10.5155   -6.6148   13.5972 O   0  0  0  0  0  0
   -9.9213   -7.2482   10.6257 C   0  0  0  0  0  0
   -9.0003   -8.0412   10.7493 O   0  0  0  0  0  0
  -11.1937   -7.6405   10.4741 O   0  0  0  0  0  0
  -11.3312   -0.9891    6.9867 O   0  0  0  0  0  0
  -10.4747   -0.6095    8.0067 C   0  0  0  0  0  0
   -9.2644   -0.7928    8.0042 O   0  0  0  0  0  0
  -11.2125    0.0784    9.1629 C   0  0  0  0  0  0
  -10.6129   -0.1563   10.5841 C   0  0  0  0  0  0
  -10.6219    1.0208   11.5765 C   0  0  0  0  0  0
  -10.1031    2.2964   10.9781 C   0  0  0  0  0  0
  -10.7049    3.0102   10.1876 O   0  0  0  0  0  0
   -8.8751    2.6082   11.4198 O   0  0  0  0  0  0
  -11.1803   -1.3752   11.3222 C   0  0  0  0  0  0
  -12.3035   -1.7983   11.1321 O   0  0  0  0  0  0
  -10.3109   -2.0217   12.1268 O   0  0  0  0  0  0
  -15.4147   -6.0169   -0.3685 H   0  0  0  0  0  0
  -14.6322   -4.6136   -0.1702 H   0  0  0  0  0  0
  -12.1984   -7.6805    2.2355 H   0  0  0  0  0  0
  -15.3113   -4.8451    1.9867 H   0  0  0  0  0  0
  -12.2599   -6.7058    7.8057 H   0  0  0  0  0  0
   -9.5882   -6.3218   13.6853 H   0  0  0  0  0  0
  -11.3079   -8.6107   10.3178 H   0  0  0  0  0  0
   -8.8735    2.4432   12.3863 H   0  0  0  0  0  0
   -9.4813   -1.5338   12.3263 H   0  0  0  0  0  0
  1  2  1  0  0  0
  2  3  1  0  0  0
  3  4  1  0  0  0
  4  5  1  0  0  0
  5  6  1  0  0  0
  5  7  1  0  0  0
  7  8  1  0  0  0
  7 39  1  0  0  0
  8  9  1  0  0  0
  8 27  1  0  0  0
  9 10  1  0  0  0
 10 11  1  0  0  0
 10 12  1  0  0  0
 12 13  1  0  0  0
 13 14  1  0  0  0
 13 26  1  0  0  0
 14 15  1  0  0  0
 15 16  1  0  0  0
 16 17  1  0  0  0
 17 18  1  0  0  0
 18 19  1  0  0  0
 18 25  1  0  0  0
 19 20  1  0  0  0
 20 21  1  0  0  0
 20 24  1  0  0  0
 21 22  1  0  0  0
 21 23  1  0  0  0
 23 51  1  0  0  0
 23 52  1  0  0  0
 24 53  1  0  0  0
 25 54  1  0  0  0
 26 55  1  0  0  0
 27 28  1  0  0  0
 28 29  2  0  0  0
 28 30  1  0  0  0
 30 31  1  0  0  0
 31 32  1  0  0  0
 31 36  1  0  0  0
 32 33  1  0  0  0
 33 34  2  0  0  0
 33 35  1  0  0  0
 35 56  1  0  0  0
 36 37  2  0  0  0
 36 38  1  0  0  0
 38 57  1  0  0  0
 39 40  1  0  0  0
 40 41  2  0  0  0
 40 42  1  0  0  0
 42 43  1  0  0  0
 43 44  1  0  0  0
 43 48  1  0  0  0
 44 45  1  0  0  0
 45 46  2  0  0  0
 45 47  1  0  0  0
 47 58  1  0  0  0
 48 49  2  0  0  0
 48 50  1  0  0  0
 50 59  1  0  0  0
M  END
>  <AUTHOR>
    GENERATED BY OPEN BABEL 2.4.1

>  <CHROM.1>
74.87304041,-157.05684233,100.89473394,177.49839718,-20.03090658,175.76335146
-153.64322477,138.60291459,60.32035513,51.41634784,-89.78605733,50.06474676
-65.60912649,-134.51565168,-145.62419816,-4.94002442,63.83087101,88.28040166
-64.19624822,59.95917791,142.57791814,-55.79058135,-95.81990130,-83.64113150
-167.41777010,61.65074469,110.75184991,122.31588406,-85.82703628,-1.76443233
167.84402578,132.56771367,147.43218091,142.07645185,-48.20122713,-28.47652400
74.85736536,-43.21747556,14.01729466,-12.29609650,-3.77506794,7.74452506
3.01445365,1.16062371,2.91449073

>  <COMPND>
    UNNAMED

>  <MASTER>
        0    0    0    0    0    0    0    0  109    0  109    0

>  <Name>
FB1.pdb

>  <RI>
0

>  <Rbt.Current_Directory>
/home/fc/tossine/F10/p3/0_clust01

>  <Rbt.Executable>
rbdock/0.1.0

>  <Rbt.Library>
librxdock.so/0.1.0

>  <Rbt.Parameter_File>
/cluster/rxdock/data/scripts/dock.prm

>  <Rbt.Receptor>
rx_1.prm

>  <SCORE>
55.3738

>  <SCORE.INTER>
9.32854

>  <SCORE.INTER.CONST>
1

>  <SCORE.INTER.POLAR>
-3.79293

>  <SCORE.INTER.REPUL>
1.69529

>  <SCORE.INTER.ROT>
32

>  <SCORE.INTER.VDW>
-23.652

>  <SCORE.INTER.norm>
0.186571

>  <SCORE.INTRA>
41.2474

>  <SCORE.INTRA.DIHEDRAL>
68.1327

>  <SCORE.INTRA.DIHEDRAL.0>
47.3121

>  <SCORE.INTRA.POLAR>
0.857385

>  <SCORE.INTRA.POLAR.0>
-1.47808

>  <SCORE.INTRA.REPUL>
0

>  <SCORE.INTRA.REPUL.0>
0

>  <SCORE.INTRA.VDW>
4.2659

>  <SCORE.INTRA.VDW.0>
-2.78316

>  <SCORE.INTRA.norm>
0.824948

>  <SCORE.RESTR>
4.7979

>  <SCORE.RESTR.CAVITY>
4.7979

>  <SCORE.RESTR.norm>
0.0959579

>  <SCORE.SYSTEM>
0

>  <SCORE.SYSTEM.CONST>
0

>  <SCORE.SYSTEM.DIHEDRAL>
0

>  <SCORE.SYSTEM.norm>
0

>  <SCORE.heavy>
50

>  <SCORE.norm>
1.10748

$$$$
