FB1.pdb
  RxDock  10062015563D
librxdock.so/0.1.0
 59 58  0  0  0  0  0  0  0  0999 V2000
  -13.5232   -9.1904    9.6697 C   0  0  0  0  0  0
  -14.0702   -8.8928    8.2756 C   0  0  0  0  0  0
  -14.6274   -7.4632    8.1757 C   0  0  0  0  0  0
  -13.5374   -6.3917    7.9237 C   0  0  0  0  0  0
  -12.4431   -6.2853    9.0425 C   0  0  0  0  0  0
  -11.1989   -7.0793    8.5819 C   0  0  0  0  0  0
  -12.0580   -4.7908    9.4115 C   0  0  0  0  0  0
  -11.0292   -4.5843   10.6219 C   0  0  0  0  0  0
  -10.3083   -3.2147   10.9864 C   0  0  0  0  0  0
  -11.3069   -2.0249   11.5417 C   0  0  0  0  0  0
  -10.8138   -1.5808   12.9179 C   0  0  0  0  0  0
  -11.4752   -0.7505   10.5970 C   0  0  0  0  0  0
  -11.3025    0.7789   11.0968 C   0  0  0  0  0  0
  -10.0813    1.2480   11.9598 C   0  0  0  0  0  0
   -9.7659    2.8111   12.0391 C   0  0  0  0  0  0
   -9.4831    3.7255   10.7828 C   0  0  0  0  0  0
   -8.2417    4.6563   10.7784 C   0  0  0  0  0  0
   -6.8326    3.9527   10.6847 C   0  0  0  0  0  0
   -6.4695    3.3372    9.3275 C   0  0  0  0  0  0
   -5.1706    2.4881    9.2268 C   0  0  0  0  0  0
   -4.7616    1.8244    7.8787 C   0  0  0  0  0  0
   -3.3880    1.1697    7.8351 C   0  0  0  0  0  0
   -5.8055    0.8911    7.4144 N   0  0  0  0  0  0
   -4.0991    3.4183    9.5277 O   0  0  0  0  0  0
   -5.8330    4.9184   11.0282 O   0  0  0  0  0  0
  -11.2295    1.5561    9.8896 O   0  0  0  0  0  0
  -11.7479   -4.9459   11.8323 O   0  0  0  0  0  0
  -11.0091   -5.4138   12.8719 C   0  0  0  0  0  0
   -9.8689   -5.8330   12.8129 O   0  0  0  0  0  0
  -11.8010   -5.2338   14.1375 C   0  0  0  0  0  0
  -13.0038   -6.1870   14.2219 C   0  0  0  0  0  0
  -13.5071   -6.3739   15.6590 C   0  0  0  0  0  0
  -14.1806   -5.1206   16.1680 C   0  0  0  0  0  0
  -15.3876   -5.0315   16.3652 O   0  0  0  0  0  0
  -13.3290   -4.1079   16.3875 O   0  0  0  0  0  0
  -14.1041   -5.5552   13.3580 C   0  0  0  0  0  0
  -13.9658   -4.4903   12.7757 O   0  0  0  0  0  0
  -15.2527   -6.2453   13.3336 O   0  0  0  0  0  0
  -11.6546   -4.0284    8.2049 O   0  0  0  0  0  0
  -12.5982   -3.2245    7.5873 C   0  0  0  0  0  0
  -13.6426   -2.8523    8.1059 O   0  0  0  0  0  0
  -12.1923   -2.8400    6.1584 C   0  0  0  0  0  0
  -11.9808   -1.3157    5.9012 C   0  0  0  0  0  0
  -13.2283   -0.4188    5.8030 C   0  0  0  0  0  0
  -14.0152   -0.3665    7.0807 C   0  0  0  0  0  0
  -13.5740   -0.5880    8.2000 O   0  0  0  0  0  0
  -15.2966   -0.0224    6.8805 O   0  0  0  0  0  0
  -11.0083   -0.6343    6.8719 C   0  0  0  0  0  0
  -10.5898   -1.1758    7.8761 O   0  0  0  0  0  0
  -10.5568    0.5771    6.4846 O   0  0  0  0  0  0
   -5.6352   -0.0286    7.8188 H   0  0  0  0  0  0
   -5.7005    0.7590    6.4059 H   0  0  0  0  0  0
   -4.3409    3.8000   10.3978 H   0  0  0  0  0  0
   -6.1180    5.7859   10.6866 H   0  0  0  0  0  0
  -10.5129    1.1943    9.3419 H   0  0  0  0  0  0
  -13.7286   -3.3028   16.7690 H   0  0  0  0  0  0
  -15.8027   -6.1550   14.1509 H   0  0  0  0  0  0
  -15.4513   -0.0647    5.9132 H   0  0  0  0  0  0
   -9.8303    0.9491    7.0324 H   0  0  0  0  0  0
  1  2  1  0  0  0
  2  3  1  0  0  0
  3  4  1  0  0  0
  4  5  1  0  0  0
  5  6  1  0  0  0
  5  7  1  0  0  0
  7  8  1  0  0  0
  7 39  1  0  0  0
  8  9  1  0  0  0
  8 27  1  0  0  0
  9 10  1  0  0  0
 10 11  1  0  0  0
 10 12  1  0  0  0
 12 13  1  0  0  0
 13 14  1  0  0  0
 13 26  1  0  0  0
 14 15  1  0  0  0
 15 16  1  0  0  0
 16 17  1  0  0  0
 17 18  1  0  0  0
 18 19  1  0  0  0
 18 25  1  0  0  0
 19 20  1  0  0  0
 20 21  1  0  0  0
 20 24  1  0  0  0
 21 22  1  0  0  0
 21 23  1  0  0  0
 23 51  1  0  0  0
 23 52  1  0  0  0
 24 53  1  0  0  0
 25 54  1  0  0  0
 26 55  1  0  0  0
 27 28  1  0  0  0
 28 29  2  0  0  0
 28 30  1  0  0  0
 30 31  1  0  0  0
 31 32  1  0  0  0
 31 36  1  0  0  0
 32 33  1  0  0  0
 33 34  2  0  0  0
 33 35  1  0  0  0
 35 56  1  0  0  0
 36 37  2  0  0  0
 36 38  1  0  0  0
 38 57  1  0  0  0
 39 40  1  0  0  0
 40 41  2  0  0  0
 40 42  1  0  0  0
 42 43  1  0  0  0
 43 44  1  0  0  0
 43 48  1  0  0  0
 44 45  1  0  0  0
 45 46  2  0  0  0
 45 47  1  0  0  0
 47 58  1  0  0  0
 48 49  2  0  0  0
 48 50  1  0  0  0
 50 59  1  0  0  0
M  END
>  <AUTHOR>
    GENERATED BY OPEN BABEL 2.4.1

>  <CHROM.1>
82.14986244,-60.91799274,98.48753921,175.50309495,168.27249589,97.41157307
67.33265116,152.11915573,123.06413640,-129.61603023,47.75331806,162.16568680
-55.02742490,-57.40036139,-130.58172978,69.59192252,72.06678249,-172.88748082
-35.76092512,179.23414616,172.24977409,54.79472433,-87.93743381,-17.07815742
70.55648616,159.61558465,70.64134528,-1.12643847,109.95082746,-176.39152811
76.04578607,17.16410849,-117.36919697,-74.46920939,63.63913479,-10.49982672
23.84428696,11.30131382,-170.78886309,-11.11364290,-2.09606992,10.25153615
2.79509450,0.91142010,1.69298875

>  <COMPND>
    UNNAMED

>  <MASTER>
        0    0    0    0    0    0    0    0  109    0  109    0

>  <Name>
FB1.pdb

>  <RI>
0

>  <Rbt.Current_Directory>
/home/fc/tossine/F10/p3/0_clust01

>  <Rbt.Executable>
rbdock/0.1.0

>  <Rbt.Library>
librxdock.so/0.1.0

>  <Rbt.Parameter_File>
/cluster/rxdock/data/scripts/dock.prm

>  <Rbt.Receptor>
rx_0.prm

>  <SCORE>
49.0951

>  <SCORE.INTER>
16.0949

>  <SCORE.INTER.CONST>
1

>  <SCORE.INTER.POLAR>
-2.50981

>  <SCORE.INTER.REPUL>
0.515612

>  <SCORE.INTER.ROT>
32

>  <SCORE.INTER.VDW>
-15.3498

>  <SCORE.INTER.norm>
0.321898

>  <SCORE.INTRA>
24.1566

>  <SCORE.INTRA.DIHEDRAL>
32.9263

>  <SCORE.INTRA.DIHEDRAL.0>
47.3121

>  <SCORE.INTRA.POLAR>
0.825367

>  <SCORE.INTRA.POLAR.0>
-1.47808

>  <SCORE.INTRA.REPUL>
0

>  <SCORE.INTRA.REPUL.0>
0

>  <SCORE.INTRA.VDW>
4.88721

>  <SCORE.INTRA.VDW.0>
-2.78316

>  <SCORE.INTRA.norm>
0.483132

>  <SCORE.RESTR>
8.84363

>  <SCORE.RESTR.CAVITY>
8.84363

>  <SCORE.RESTR.norm>
0.176873

>  <SCORE.SYSTEM>
0

>  <SCORE.SYSTEM.CONST>
0

>  <SCORE.SYSTEM.DIHEDRAL>
0

>  <SCORE.SYSTEM.norm>
0

>  <SCORE.heavy>
50

>  <SCORE.norm>
0.981903

$$$$
