FB1.pdb
  RxDock  10062015523D
librxdock.so/0.1.0
 59 58  0  0  0  0  0  0  0  0999 V2000
   -8.8671    2.4573   11.5789 C   0  0  0  0  0  0
  -10.3929    2.4418   11.6348 C   0  0  0  0  0  0
  -10.9841    1.3362   10.7446 C   0  0  0  0  0  0
  -11.0343   -0.0505   11.4335 C   0  0  0  0  0  0
  -10.8175   -1.2734   10.4754 C   0  0  0  0  0  0
   -9.3990   -1.8373   10.7213 C   0  0  0  0  0  0
  -11.9151   -2.4076   10.6380 C   0  0  0  0  0  0
  -12.4165   -3.1296    9.2988 C   0  0  0  0  0  0
  -13.4649   -4.3237    9.2405 C   0  0  0  0  0  0
  -12.8028   -5.8336    9.1829 C   0  0  0  0  0  0
  -12.1057   -6.1087   10.5142 C   0  0  0  0  0  0
  -13.8050   -7.0284    8.8469 C   0  0  0  0  0  0
  -13.4679   -8.5919    9.0923 C   0  0  0  0  0  0
  -14.4583   -9.7381    8.6903 C   0  0  0  0  0  0
  -14.1961  -11.2030    9.2684 C   0  0  0  0  0  0
  -13.1989  -11.5269   10.4496 C   0  0  0  0  0  0
  -12.5762  -10.3631   11.2653 C   0  0  0  0  0  0
  -13.4037   -9.8497   12.5066 C   0  0  0  0  0  0
  -13.3089  -10.6950   13.7829 C   0  0  0  0  0  0
  -11.9124  -10.8832   14.4407 C   0  0  0  0  0  0
  -11.3708   -9.8382   15.4606 C   0  0  0  0  0  0
  -10.9916   -8.4756   14.8977 C   0  0  0  0  0  0
  -12.2885   -9.6983   16.6071 N   0  0  0  0  0  0
  -12.0236  -12.1187   15.1924 O   0  0  0  0  0  0
  -12.9678   -8.5198   12.8086 O   0  0  0  0  0  0
  -12.2777   -8.8382    8.3246 O   0  0  0  0  0  0
  -13.0092   -2.0899    8.4740 O   0  0  0  0  0  0
  -13.1184   -2.3447    7.1442 C   0  0  0  0  0  0
  -13.2177   -3.4414    6.6276 O   0  0  0  0  0  0
  -13.1992   -1.0330    6.4133 C   0  0  0  0  0  0
  -12.7591   -1.1472    4.9451 C   0  0  0  0  0  0
  -13.9452   -1.3127    3.9862 C   0  0  0  0  0  0
  -14.7661   -2.5311    4.3399 C   0  0  0  0  0  0
  -14.3895   -3.6820    4.1473 O   0  0  0  0  0  0
  -15.9530   -2.2345    4.8897 O   0  0  0  0  0  0
  -12.0050    0.1516    4.6284 C   0  0  0  0  0  0
  -11.1500    0.6225    5.3630 O   0  0  0  0  0  0
  -12.3969    0.7574    3.4990 O   0  0  0  0  0  0
  -11.5236   -3.3859   11.6819 O   0  0  0  0  0  0
  -11.9533   -3.1710   12.9808 C   0  0  0  0  0  0
  -12.7014   -2.2657   13.3261 O   0  0  0  0  0  0
  -11.3850   -4.2045   13.9622 C   0  0  0  0  0  0
  -12.1945   -4.4027   15.2813 C   0  0  0  0  0  0
  -12.5029   -5.8425   15.7313 C   0  0  0  0  0  0
  -13.6638   -5.9245   16.6801 C   0  0  0  0  0  0
  -14.5925   -5.1306   16.7416 O   0  0  0  0  0  0
  -13.6001   -7.0022   17.4768 O   0  0  0  0  0  0
  -11.6250   -3.6605   16.4966 C   0  0  0  0  0  0
  -10.4456   -3.6795   16.7888 O   0  0  0  0  0  0
  -12.5050   -2.8894   17.1692 O   0  0  0  0  0  0
  -11.8430   -9.1271   17.3239 H   0  0  0  0  0  0
  -12.4119  -10.6161   17.0407 H   0  0  0  0  0  0
  -12.7896  -11.9772   15.7877 H   0  0  0  0  0  0
  -13.2884   -7.9273   12.1039 H   0  0  0  0  0  0
  -12.4291   -8.5115    7.4219 H   0  0  0  0  0  0
  -16.1042   -1.2864    5.0682 H   0  0  0  0  0  0
  -12.5874    0.1418    2.7484 H   0  0  0  0  0  0
  -12.9522   -7.6152   17.0697 H   0  0  0  0  0  0
  -12.1504   -2.4539   17.9759 H   0  0  0  0  0  0
  1  2  1  0  0  0
  2  3  1  0  0  0
  3  4  1  0  0  0
  4  5  1  0  0  0
  5  6  1  0  0  0
  5  7  1  0  0  0
  7  8  1  0  0  0
  7 39  1  0  0  0
  8  9  1  0  0  0
  8 27  1  0  0  0
  9 10  1  0  0  0
 10 11  1  0  0  0
 10 12  1  0  0  0
 12 13  1  0  0  0
 13 14  1  0  0  0
 13 26  1  0  0  0
 14 15  1  0  0  0
 15 16  1  0  0  0
 16 17  1  0  0  0
 17 18  1  0  0  0
 18 19  1  0  0  0
 18 25  1  0  0  0
 19 20  1  0  0  0
 20 21  1  0  0  0
 20 24  1  0  0  0
 21 22  1  0  0  0
 21 23  1  0  0  0
 23 51  1  0  0  0
 23 52  1  0  0  0
 24 53  1  0  0  0
 25 54  1  0  0  0
 26 55  1  0  0  0
 27 28  1  0  0  0
 28 29  2  0  0  0
 28 30  1  0  0  0
 30 31  1  0  0  0
 31 32  1  0  0  0
 31 36  1  0  0  0
 32 33  1  0  0  0
 33 34  2  0  0  0
 33 35  1  0  0  0
 35 56  1  0  0  0
 36 37  2  0  0  0
 36 38  1  0  0  0
 38 57  1  0  0  0
 39 40  1  0  0  0
 40 41  2  0  0  0
 40 42  1  0  0  0
 42 43  1  0  0  0
 43 44  1  0  0  0
 43 48  1  0  0  0
 44 45  1  0  0  0
 45 46  2  0  0  0
 45 47  1  0  0  0
 47 58  1  0  0  0
 48 49  2  0  0  0
 48 50  1  0  0  0
 50 59  1  0  0  0
M  END
>  <AUTHOR>
    GENERATED BY OPEN BABEL 2.4.1

>  <CHROM.1>
83.94986917,-146.43790346,105.84085441,141.30162078,177.58884011,91.95829318
-95.58832593,159.48227957,67.24321498,-164.31487063,-177.29860630,-166.10193830
-51.05698885,13.45958834,9.65307605,87.80285428,79.27689046,60.59249264,70.97065934
86.64968829,-69.72916948,-55.81747292,171.02375771,27.14215295,156.71741672
96.99545708,-57.90611686,46.67469498,-72.19732349,-5.39860135,-39.92832284
4.28871563,-157.37242176,132.64109012,-159.01348974,-46.63909473,26.70951994
-16.45701536,176.77509168,-12.50568581,-4.73267441,10.94547960,-1.57962666
1.29634696,2.32333932

>  <COMPND>
    UNNAMED

>  <MASTER>
        0    0    0    0    0    0    0    0  109    0  109    0

>  <Name>
FB1.pdb

>  <RI>
0

>  <Rbt.Current_Directory>
/home/fc/tossine/F10/p3/0_clust01

>  <Rbt.Executable>
rbdock/0.1.0

>  <Rbt.Library>
librxdock.so/0.1.0

>  <Rbt.Parameter_File>
/cluster/rxdock/data/scripts/dock.prm

>  <Rbt.Receptor>
rx_0.prm

>  <SCORE>
46.4272

>  <SCORE.INTER>
14.4455

>  <SCORE.INTER.CONST>
1

>  <SCORE.INTER.POLAR>
-2.93238

>  <SCORE.INTER.REPUL>
1.89026

>  <SCORE.INTER.ROT>
32

>  <SCORE.INTER.VDW>
-22.4357

>  <SCORE.INTER.norm>
0.288911

>  <SCORE.INTRA>
25.382

>  <SCORE.INTRA.DIHEDRAL>
39.8416

>  <SCORE.INTRA.DIHEDRAL.0>
47.3121

>  <SCORE.INTRA.POLAR>
0.579318

>  <SCORE.INTRA.POLAR.0>
-1.47808

>  <SCORE.INTRA.REPUL>
0

>  <SCORE.INTRA.REPUL.0>
0

>  <SCORE.INTRA.VDW>
3.49155

>  <SCORE.INTRA.VDW.0>
-2.78316

>  <SCORE.INTRA.norm>
0.507641

>  <SCORE.RESTR>
6.59961

>  <SCORE.RESTR.CAVITY>
6.59961

>  <SCORE.RESTR.norm>
0.131992

>  <SCORE.SYSTEM>
0

>  <SCORE.SYSTEM.CONST>
0

>  <SCORE.SYSTEM.DIHEDRAL>
0

>  <SCORE.SYSTEM.norm>
0

>  <SCORE.heavy>
50

>  <SCORE.norm>
0.928544

$$$$
