FB1.pdb
  RxDock  10062016323D
librxdock.so/0.1.0
 59 58  0  0  0  0  0  0  0  0999 V2000
    4.2077  -11.7316    5.1181 C   0  0  0  0  0  0
    3.9328  -10.3092    4.6358 C   0  0  0  0  0  0
    2.4616  -10.1197    4.2310 C   0  0  0  0  0  0
    1.4607  -10.4616    5.3627 C   0  0  0  0  0  0
   -0.0021  -10.7634    4.8834 C   0  0  0  0  0  0
   -0.5519  -11.9446    5.7159 C   0  0  0  0  0  0
   -0.9690   -9.5083    4.9717 C   0  0  0  0  0  0
   -2.2883   -9.5433    4.0638 C   0  0  0  0  0  0
   -2.3217   -9.3223    2.4895 C   0  0  0  0  0  0
   -3.3825   -8.1720    1.9670 C   0  0  0  0  0  0
   -3.4000   -7.0311    2.9829 C   0  0  0  0  0  0
   -3.1198   -7.5846    0.5073 C   0  0  0  0  0  0
   -4.0780   -6.5034   -0.2219 C   0  0  0  0  0  0
   -5.4412   -6.0377    0.3954 C   0  0  0  0  0  0
   -6.2351   -4.8557   -0.3269 C   0  0  0  0  0  0
   -7.0415   -5.0208   -1.6749 C   0  0  0  0  0  0
   -6.4117   -5.8140   -2.8503 C   0  0  0  0  0  0
   -5.1719   -5.1501   -3.5653 C   0  0  0  0  0  0
   -4.8557   -5.6501   -4.9804 C   0  0  0  0  0  0
   -4.9282   -4.6335   -6.1550 C   0  0  0  0  0  0
   -5.1853   -5.1233   -7.6108 C   0  0  0  0  0  0
   -4.2587   -6.2125   -8.1328 C   0  0  0  0  0  0
   -6.5994   -5.5004   -7.7964 N   0  0  0  0  0  0
   -6.0620   -3.7861   -5.8382 O   0  0  0  0  0  0
   -5.3988   -3.7377   -3.6222 O   0  0  0  0  0  0
   -3.2824   -5.3100   -0.3180 O   0  0  0  0  0  0
   -2.8786  -10.8575    4.2553 O   0  0  0  0  0  0
   -3.3525  -11.1461    5.4952 C   0  0  0  0  0  0
   -3.6080  -10.3434    6.3725 O   0  0  0  0  0  0
   -3.6087  -12.6259    5.5743 C   0  0  0  0  0  0
   -4.5436  -13.0019    6.7348 C   0  0  0  0  0  0
   -3.9761  -12.5995    8.1021 C   0  0  0  0  0  0
   -4.6308  -13.3829    9.2160 C   0  0  0  0  0  0
   -5.1505  -14.4822    9.0575 O   0  0  0  0  0  0
   -4.5887  -12.7605   10.4033 O   0  0  0  0  0  0
   -5.8607  -12.2584    6.4734 C   0  0  0  0  0  0
   -5.9356  -11.0415    6.3957 O   0  0  0  0  0  0
   -6.9364  -13.0529    6.3856 O   0  0  0  0  0  0
   -1.2757   -9.1669    6.3822 O   0  0  0  0  0  0
   -2.1653   -8.1353    6.6321 C   0  0  0  0  0  0
   -2.7619   -7.5057    5.7684 O   0  0  0  0  0  0
   -2.3304   -7.8573    8.1320 C   0  0  0  0  0  0
   -1.5460   -8.8092    9.0877 C   0  0  0  0  0  0
   -1.4502   -8.4227   10.5749 C   0  0  0  0  0  0
   -0.8623   -7.0578   10.7896 C   0  0  0  0  0  0
    0.0630   -6.5715   10.1542 O   0  0  0  0  0  0
   -1.4801   -6.3814   11.7700 O   0  0  0  0  0  0
   -1.9869  -10.2770    9.0287 C   0  0  0  0  0  0
   -1.4865  -11.0868    8.2735 O   0  0  0  0  0  0
   -2.9012  -10.6448    9.9507 O   0  0  0  0  0  0
   -6.7356   -6.4565   -7.4710 H   0  0  0  0  0  0
   -6.8003   -5.5321   -8.7984 H   0  0  0  0  0  0
   -6.8448   -4.3612   -5.9720 H   0  0  0  0  0  0
   -5.1677   -3.3573   -2.7547 H   0  0  0  0  0  0
   -3.8008   -4.6406   -0.7951 H   0  0  0  0  0  0
   -4.0090  -11.9756   10.4420 H   0  0  0  0  0  0
   -6.7893  -13.9786    6.7020 H   0  0  0  0  0  0
   -1.3004   -5.4305   11.6122 H   0  0  0  0  0  0
   -3.3280   -9.9048   10.4370 H   0  0  0  0  0  0
  1  2  1  0  0  0
  2  3  1  0  0  0
  3  4  1  0  0  0
  4  5  1  0  0  0
  5  6  1  0  0  0
  5  7  1  0  0  0
  7  8  1  0  0  0
  7 39  1  0  0  0
  8  9  1  0  0  0
  8 27  1  0  0  0
  9 10  1  0  0  0
 10 11  1  0  0  0
 10 12  1  0  0  0
 12 13  1  0  0  0
 13 14  1  0  0  0
 13 26  1  0  0  0
 14 15  1  0  0  0
 15 16  1  0  0  0
 16 17  1  0  0  0
 17 18  1  0  0  0
 18 19  1  0  0  0
 18 25  1  0  0  0
 19 20  1  0  0  0
 20 21  1  0  0  0
 20 24  1  0  0  0
 21 22  1  0  0  0
 21 23  1  0  0  0
 23 51  1  0  0  0
 23 52  1  0  0  0
 24 53  1  0  0  0
 25 54  1  0  0  0
 26 55  1  0  0  0
 27 28  1  0  0  0
 28 29  2  0  0  0
 28 30  1  0  0  0
 30 31  1  0  0  0
 31 32  1  0  0  0
 31 36  1  0  0  0
 32 33  1  0  0  0
 33 34  2  0  0  0
 33 35  1  0  0  0
 35 56  1  0  0  0
 36 37  2  0  0  0
 36 38  1  0  0  0
 38 57  1  0  0  0
 39 40  1  0  0  0
 40 41  2  0  0  0
 40 42  1  0  0  0
 42 43  1  0  0  0
 43 44  1  0  0  0
 43 48  1  0  0  0
 44 45  1  0  0  0
 45 46  2  0  0  0
 45 47  1  0  0  0
 47 58  1  0  0  0
 48 49  2  0  0  0
 48 50  1  0  0  0
 50 59  1  0  0  0
M  END
>  <AUTHOR>
    GENERATED BY OPEN BABEL 2.4.1

>  <CHROM.1>
56.70037455,-159.89174980,139.98876278,159.29082332,-74.64249472,-176.66689506
-127.40033429,65.67458085,36.65627114,176.97413567,-6.17002979,173.66034349
176.99920404,74.86157138,-44.30267792,-69.01181935,-159.51350937,118.00789104
80.51021431,-155.50080226,-53.07904248,-70.86468257,-83.61743832,17.54300078
-161.76066961,-60.36252536,-159.86078285,-59.86304706,24.55761858,-10.84190895
13.39548584,2.72230389,-3.01701883,168.44106796,-56.06076699,90.52658200
-38.80676743,-157.98044262,12.28974667,-3.11311454,-8.76586498,3.70705123
-1.33670587,-0.32968261,-1.10142904

>  <COMPND>
    UNNAMED

>  <MASTER>
        0    0    0    0    0    0    0    0  109    0  109    0

>  <Name>
FB1.pdb

>  <RI>
0

>  <Rbt.Current_Directory>
/home/fc/tossine/F10/p3/0_clust01

>  <Rbt.Executable>
rbdock/0.1.0

>  <Rbt.Library>
librxdock.so/0.1.0

>  <Rbt.Parameter_File>
/cluster/rxdock/data/scripts/dock.prm

>  <Rbt.Receptor>
rx_1.prm

>  <SCORE>
25.094

>  <SCORE.INTER>
2.63811

>  <SCORE.INTER.CONST>
1

>  <SCORE.INTER.POLAR>
-1.80346

>  <SCORE.INTER.REPUL>
1.33334

>  <SCORE.INTER.ROT>
32

>  <SCORE.INTER.VDW>
-35.2968

>  <SCORE.INTER.norm>
0.0527623

>  <SCORE.INTRA>
17.1339

>  <SCORE.INTRA.DIHEDRAL>
16.3131

>  <SCORE.INTRA.DIHEDRAL.0>
47.3121

>  <SCORE.INTRA.POLAR>
0.288848

>  <SCORE.INTRA.POLAR.0>
-1.47808

>  <SCORE.INTRA.REPUL>
0

>  <SCORE.INTRA.REPUL.0>
0

>  <SCORE.INTRA.VDW>
7.99526

>  <SCORE.INTRA.VDW.0>
-2.78316

>  <SCORE.INTRA.norm>
0.342678

>  <SCORE.RESTR>
5.32196

>  <SCORE.RESTR.CAVITY>
5.32196

>  <SCORE.RESTR.norm>
0.106439

>  <SCORE.SYSTEM>
0

>  <SCORE.SYSTEM.CONST>
0

>  <SCORE.SYSTEM.DIHEDRAL>
0

>  <SCORE.SYSTEM.norm>
0

>  <SCORE.heavy>
50

>  <SCORE.norm>
0.501879

$$$$
