FB1.pdb
  RxDock  10062016373D
librxdock.so/0.1.0
 59 58  0  0  0  0  0  0  0  0999 V2000
  -11.2309   -5.5280   14.5334 C   0  0  0  0  0  0
  -10.4662   -5.8732   13.2577 C   0  0  0  0  0  0
  -10.9655   -5.0548   12.0555 C   0  0  0  0  0  0
  -10.2751   -5.4331   10.7214 C   0  0  0  0  0  0
  -10.5922   -4.4779    9.5183 C   0  0  0  0  0  0
   -9.8399   -5.0000    8.2725 C   0  0  0  0  0  0
  -12.1437   -4.3262    9.2221 C   0  0  0  0  0  0
  -12.5961   -3.0586    8.3534 C   0  0  0  0  0  0
  -12.7323   -1.5732    8.9043 C   0  0  0  0  0  0
  -12.6484   -1.4254   10.5452 C   0  0  0  0  0  0
  -13.8037   -2.2116   11.1627 C   0  0  0  0  0  0
  -11.2749   -1.8724   11.2222 C   0  0  0  0  0  0
  -10.5723   -1.0900   12.4521 C   0  0  0  0  0  0
  -11.0528    0.3219   12.9337 C   0  0  0  0  0  0
  -11.3769    1.4289   11.8298 C   0  0  0  0  0  0
  -10.2787    2.2249   11.0204 C   0  0  0  0  0  0
   -8.7773    1.9851   11.3296 C   0  0  0  0  0  0
   -7.7387    2.6997   10.3810 C   0  0  0  0  0  0
   -7.9610    2.5221    8.8738 C   0  0  0  0  0  0
   -7.5035    1.1909    8.2128 C   0  0  0  0  0  0
   -5.9951    0.8054    8.1715 C   0  0  0  0  0  0
   -5.4647    0.2862    6.8424 C   0  0  0  0  0  0
   -5.1568    1.9081    8.6792 N   0  0  0  0  0  0
   -8.1350    0.1518    9.0035 O   0  0  0  0  0  0
   -7.7564    4.0994   10.6814 O   0  0  0  0  0  0
  -10.7478   -1.9536   13.5879 O   0  0  0  0  0  0
  -11.6414   -2.9517    7.2628 O   0  0  0  0  0  0
  -11.9935   -2.1701    6.2090 C   0  0  0  0  0  0
  -11.3427   -1.2540    5.7436 O   0  0  0  0  0  0
  -13.2850   -2.6905    5.6410 C   0  0  0  0  0  0
  -13.6019   -2.1001    4.2578 C   0  0  0  0  0  0
  -14.9338   -2.6090    3.6916 C   0  0  0  0  0  0
  -15.9524   -2.8081    4.7899 C   0  0  0  0  0  0
  -16.4190   -1.8908    5.4567 O   0  0  0  0  0  0
  -16.3027   -4.0905    4.9677 O   0  0  0  0  0  0
  -13.6608   -0.5787    4.4519 C   0  0  0  0  0  0
  -12.9876    0.2036    3.7983 O   0  0  0  0  0  0
  -14.4781   -0.1778    5.4354 O   0  0  0  0  0  0
  -12.7147   -5.5903    8.6970 O   0  0  0  0  0  0
  -13.7042   -6.2219    9.4319 C   0  0  0  0  0  0
  -13.9887   -5.9536   10.5919 O   0  0  0  0  0  0
  -14.4221   -7.3136    8.6274 C   0  0  0  0  0  0
  -13.5163   -8.4640    8.0883 C   0  0  0  0  0  0
  -12.9685   -9.4876    9.0995 C   0  0  0  0  0  0
  -12.3381   -8.8453   10.3013 C   0  0  0  0  0  0
  -11.6180   -7.8564   10.2865 O   0  0  0  0  0  0
  -12.6629   -9.4671   11.4451 O   0  0  0  0  0  0
  -14.1193   -9.2572    6.9224 C   0  0  0  0  0  0
  -15.2530   -9.0825    6.5213 O   0  0  0  0  0  0
  -13.2707  -10.0962    6.2921 O   0  0  0  0  0  0
   -4.2362    1.5438    8.9209 H   0  0  0  0  0  0
   -5.5504    2.2371    9.5636 H   0  0  0  0  0  0
   -7.9717   -0.6742    8.5010 H   0  0  0  0  0  0
   -7.5517    4.2098   11.6282 H   0  0  0  0  0  0
  -10.3276   -2.8061   13.3852 H   0  0  0  0  0  0
  -16.9873   -4.2450    5.6466 H   0  0  0  0  0  0
  -15.1386   -0.8565    5.7218 H   0  0  0  0  0  0
  -12.5646  -10.4286   11.2804 H   0  0  0  0  0  0
  -12.3754  -10.1660    6.6919 H   0  0  0  0  0  0
  1  2  1  0  0  0
  2  3  1  0  0  0
  3  4  1  0  0  0
  4  5  1  0  0  0
  5  6  1  0  0  0
  5  7  1  0  0  0
  7  8  1  0  0  0
  7 39  1  0  0  0
  8  9  1  0  0  0
  8 27  1  0  0  0
  9 10  1  0  0  0
 10 11  1  0  0  0
 10 12  1  0  0  0
 12 13  1  0  0  0
 13 14  1  0  0  0
 13 26  1  0  0  0
 14 15  1  0  0  0
 15 16  1  0  0  0
 16 17  1  0  0  0
 17 18  1  0  0  0
 18 19  1  0  0  0
 18 25  1  0  0  0
 19 20  1  0  0  0
 20 21  1  0  0  0
 20 24  1  0  0  0
 21 22  1  0  0  0
 21 23  1  0  0  0
 23 51  1  0  0  0
 23 52  1  0  0  0
 24 53  1  0  0  0
 25 54  1  0  0  0
 26 55  1  0  0  0
 27 28  1  0  0  0
 28 29  2  0  0  0
 28 30  1  0  0  0
 30 31  1  0  0  0
 31 32  1  0  0  0
 31 36  1  0  0  0
 32 33  1  0  0  0
 33 34  2  0  0  0
 33 35  1  0  0  0
 35 56  1  0  0  0
 36 37  2  0  0  0
 36 38  1  0  0  0
 38 57  1  0  0  0
 39 40  1  0  0  0
 40 41  2  0  0  0
 40 42  1  0  0  0
 42 43  1  0  0  0
 43 44  1  0  0  0
 43 48  1  0  0  0
 44 45  1  0  0  0
 45 46  2  0  0  0
 45 47  1  0  0  0
 47 58  1  0  0  0
 48 49  2  0  0  0
 48 50  1  0  0  0
 50 59  1  0  0  0
M  END
>  <AUTHOR>
    GENERATED BY OPEN BABEL 2.4.1

>  <CHROM.1>
-176.55358589,-170.99579415,-179.54105397,161.26610865,-77.93924059,117.92683638
-11.08734434,163.98472812,-61.43737226,140.59852842,-10.72789771,-44.20462834
58.91005730,-75.39995721,-2.59764824,173.76949172,-49.92796572,-79.15632507
57.12391861,-64.49166318,-134.38093899,170.79484891,162.15327611,126.30876640
-166.33053241,-178.80874812,35.16192304,125.15424420,65.83774111,-177.59446907
-17.91619807,-13.41313151,59.16344014,72.30205747,-49.12638888,-5.89846434
-41.05758402,45.38029664,4.79157316,-11.67877014,-3.00304964,8.80127726,-2.52069226
-0.90119325,-0.66416056

>  <COMPND>
    UNNAMED

>  <MASTER>
        0    0    0    0    0    0    0    0  109    0  109    0

>  <Name>
FB1.pdb

>  <RI>
0

>  <Rbt.Current_Directory>
/home/fc/tossine/F10/p3/0_clust01

>  <Rbt.Executable>
rbdock/0.1.0

>  <Rbt.Library>
librxdock.so/0.1.0

>  <Rbt.Parameter_File>
/cluster/rxdock/data/scripts/dock.prm

>  <Rbt.Receptor>
rx_1.prm

>  <SCORE>
41.1724

>  <SCORE.INTER>
8.84457

>  <SCORE.INTER.CONST>
1

>  <SCORE.INTER.POLAR>
-1.81916

>  <SCORE.INTER.REPUL>
0.074419

>  <SCORE.INTER.ROT>
32

>  <SCORE.INTER.VDW>
-22.7424

>  <SCORE.INTER.norm>
0.176891

>  <SCORE.INTRA>
24.1991

>  <SCORE.INTRA.DIHEDRAL>
38.3198

>  <SCORE.INTRA.DIHEDRAL.0>
47.3121

>  <SCORE.INTRA.POLAR>
1.32847

>  <SCORE.INTRA.POLAR.0>
-1.47808

>  <SCORE.INTRA.REPUL>
0

>  <SCORE.INTRA.REPUL.0>
0

>  <SCORE.INTRA.VDW>
0.522399

>  <SCORE.INTRA.VDW.0>
-2.78316

>  <SCORE.INTRA.norm>
0.483982

>  <SCORE.RESTR>
8.12873

>  <SCORE.RESTR.CAVITY>
8.12873

>  <SCORE.RESTR.norm>
0.162575

>  <SCORE.SYSTEM>
0

>  <SCORE.SYSTEM.CONST>
0

>  <SCORE.SYSTEM.DIHEDRAL>
0

>  <SCORE.SYSTEM.norm>
0

>  <SCORE.heavy>
50

>  <SCORE.norm>
0.823448

$$$$
