FB1.pdb
  RxDock  10062016373D
librxdock.so/0.1.0
 59 58  0  0  0  0  0  0  0  0999 V2000
  -14.0548   -5.8126   12.3446 C   0  0  0  0  0  0
  -12.9420   -4.9663   12.9584 C   0  0  0  0  0  0
  -12.8151   -3.6011   12.2625 C   0  0  0  0  0  0
  -12.4370   -3.7046   10.7638 C   0  0  0  0  0  0
  -13.5146   -3.1471    9.7696 C   0  0  0  0  0  0
  -13.7045   -1.6394   10.0550 C   0  0  0  0  0  0
  -13.1568   -3.3951    8.2437 C   0  0  0  0  0  0
  -12.8590   -2.1005    7.3484 C   0  0  0  0  0  0
  -11.7595   -0.9981    7.6711 C   0  0  0  0  0  0
  -10.2493   -1.5857    7.9799 C   0  0  0  0  0  0
   -9.2364   -0.4654    7.7495 C   0  0  0  0  0  0
  -10.0242   -2.2214    9.4256 C   0  0  0  0  0  0
   -9.4459   -1.4037   10.6966 C   0  0  0  0  0  0
   -9.7715    0.1098   10.9406 C   0  0  0  0  0  0
  -11.2547    0.5041   11.3809 C   0  0  0  0  0  0
  -11.7533    1.9872   11.5956 C   0  0  0  0  0  0
  -10.8989    2.9658   12.4441 C   0  0  0  0  0  0
   -9.6048    3.5506   11.7568 C   0  0  0  0  0  0
   -8.9096    4.7053   12.4887 C   0  0  0  0  0  0
   -7.9295    5.6050   11.6835 C   0  0  0  0  0  0
   -6.8019    4.9695   10.8174 C   0  0  0  0  0  0
   -6.5136    5.6407    9.4819 C   0  0  0  0  0  0
   -5.5643    4.8062   11.6036 N   0  0  0  0  0  0
   -8.7726    6.3146   10.7403 O   0  0  0  0  0  0
   -8.6662    2.4809   11.5999 O   0  0  0  0  0  0
   -9.9687   -2.0900   11.8465 O   0  0  0  0  0  0
  -12.4985   -2.5928    6.0293 O   0  0  0  0  0  0
  -12.1868   -1.6641    5.0882 C   0  0  0  0  0  0
  -11.0671   -1.3313    4.7491 O   0  0  0  0  0  0
  -13.4625   -1.1814    4.4550 C   0  0  0  0  0  0
  -14.6532   -2.1091    4.7449 C   0  0  0  0  0  0
  -15.6388   -1.5042    5.7529 C   0  0  0  0  0  0
  -17.0209   -2.0912    5.5834 C   0  0  0  0  0  0
  -18.0455   -1.4180    5.5598 O   0  0  0  0  0  0
  -17.0226   -3.4266    5.4585 O   0  0  0  0  0  0
  -15.3519   -2.3326    3.3965 C   0  0  0  0  0  0
  -16.0130   -1.4710    2.8371 O   0  0  0  0  0  0
  -15.2184   -3.5714    2.9032 O   0  0  0  0  0  0
  -12.0965   -4.4226    8.1025 O   0  0  0  0  0  0
  -12.4123   -5.7396    8.3922 C   0  0  0  0  0  0
  -13.5505   -6.1859    8.4517 O   0  0  0  0  0  0
  -11.1647   -6.5992    8.6350 C   0  0  0  0  0  0
  -11.2733   -7.6386    9.7936 C   0  0  0  0  0  0
  -11.3757   -7.1071   11.2349 C   0  0  0  0  0  0
  -10.0570   -6.6458   11.7851 C   0  0  0  0  0  0
   -9.8925   -5.7041   12.5484 O   0  0  0  0  0  0
   -9.0320   -7.4015   11.3623 O   0  0  0  0  0  0
  -12.3857   -8.6792    9.6145 C   0  0  0  0  0  0
  -13.0837   -8.7352    8.6213 O   0  0  0  0  0  0
  -12.4740   -9.6068   10.5907 O   0  0  0  0  0  0
   -5.8081    4.6157   12.5746 H   0  0  0  0  0  0
   -5.0714    5.7017   11.6265 H   0  0  0  0  0  0
   -9.2951    6.9331   11.2933 H   0  0  0  0  0  0
   -8.3765    2.1979   12.4868 H   0  0  0  0  0  0
   -9.6300   -1.6455   12.6417 H   0  0  0  0  0  0
  -17.9057   -3.8373    5.3880 H   0  0  0  0  0  0
  -14.7816   -4.2125    3.5172 H   0  0  0  0  0  0
   -8.3475   -7.3647   12.0633 H   0  0  0  0  0  0
  -13.0654  -10.3671   10.3950 H   0  0  0  0  0  0
  1  2  1  0  0  0
  2  3  1  0  0  0
  3  4  1  0  0  0
  4  5  1  0  0  0
  5  6  1  0  0  0
  5  7  1  0  0  0
  7  8  1  0  0  0
  7 39  1  0  0  0
  8  9  1  0  0  0
  8 27  1  0  0  0
  9 10  1  0  0  0
 10 11  1  0  0  0
 10 12  1  0  0  0
 12 13  1  0  0  0
 13 14  1  0  0  0
 13 26  1  0  0  0
 14 15  1  0  0  0
 15 16  1  0  0  0
 16 17  1  0  0  0
 17 18  1  0  0  0
 18 19  1  0  0  0
 18 25  1  0  0  0
 19 20  1  0  0  0
 20 21  1  0  0  0
 20 24  1  0  0  0
 21 22  1  0  0  0
 21 23  1  0  0  0
 23 51  1  0  0  0
 23 52  1  0  0  0
 24 53  1  0  0  0
 25 54  1  0  0  0
 26 55  1  0  0  0
 27 28  1  0  0  0
 28 29  2  0  0  0
 28 30  1  0  0  0
 30 31  1  0  0  0
 31 32  1  0  0  0
 31 36  1  0  0  0
 32 33  1  0  0  0
 33 34  2  0  0  0
 33 35  1  0  0  0
 35 56  1  0  0  0
 36 37  2  0  0  0
 36 38  1  0  0  0
 38 57  1  0  0  0
 39 40  1  0  0  0
 40 41  2  0  0  0
 40 42  1  0  0  0
 42 43  1  0  0  0
 43 44  1  0  0  0
 43 48  1  0  0  0
 44 45  1  0  0  0
 45 46  2  0  0  0
 45 47  1  0  0  0
 47 58  1  0  0  0
 48 49  2  0  0  0
 48 50  1  0  0  0
 50 59  1  0  0  0
M  END
>  <AUTHOR>
    GENERATED BY OPEN BABEL 2.4.1

>  <CHROM.1>
-62.32100564,117.01329821,61.84456639,-114.03702290,55.93994557,70.36077443
50.98619798,-179.42121927,158.97277458,-93.62286281,34.82738939,70.75726119
178.69673499,-176.93185856,-47.89908358,75.83192017,169.04247276,-161.13016680
-66.77446988,-50.20309733,141.37917302,69.57289291,32.62027395,99.62289847
-15.83310117,106.87382068,155.45388603,-72.46280218,-134.14006085,177.35057545
6.96434051,18.10510011,140.13782795,-67.57991756,-77.40100850,3.55509608
145.07477893,-151.37367245,-168.80334396,-11.78380175,-2.05755765,9.03354552
-2.41085508,-0.88546736,-0.36199095

>  <COMPND>
    UNNAMED

>  <MASTER>
        0    0    0    0    0    0    0    0  109    0  109    0

>  <Name>
FB1.pdb

>  <RI>
0

>  <Rbt.Current_Directory>
/home/fc/tossine/F10/p3/0_clust01

>  <Rbt.Executable>
rbdock/0.1.0

>  <Rbt.Library>
librxdock.so/0.1.0

>  <Rbt.Parameter_File>
/cluster/rxdock/data/scripts/dock.prm

>  <Rbt.Receptor>
rx_1.prm

>  <SCORE>
33.1413

>  <SCORE.INTER>
0.285881

>  <SCORE.INTER.CONST>
1

>  <SCORE.INTER.POLAR>
-2.96038

>  <SCORE.INTER.REPUL>
0.861897

>  <SCORE.INTER.ROT>
32

>  <SCORE.INTER.VDW>
-31.3583

>  <SCORE.INTER.norm>
0.00571761

>  <SCORE.INTRA>
28.6952

>  <SCORE.INTRA.DIHEDRAL>
35.7699

>  <SCORE.INTRA.DIHEDRAL.0>
47.3121

>  <SCORE.INTRA.POLAR>
1.47808

>  <SCORE.INTRA.POLAR.0>
-1.47808

>  <SCORE.INTRA.REPUL>
0.195412

>  <SCORE.INTRA.REPUL.0>
0

>  <SCORE.INTRA.VDW>
4.80771

>  <SCORE.INTRA.VDW.0>
-2.78316

>  <SCORE.INTRA.norm>
0.573904

>  <SCORE.RESTR>
4.16019

>  <SCORE.RESTR.CAVITY>
4.16019

>  <SCORE.RESTR.norm>
0.0832039

>  <SCORE.SYSTEM>
0

>  <SCORE.SYSTEM.CONST>
0

>  <SCORE.SYSTEM.DIHEDRAL>
0

>  <SCORE.SYSTEM.norm>
0

>  <SCORE.heavy>
50

>  <SCORE.norm>
0.662825

$$$$
