FB1.pdb
  RxDock  10062015573D
librxdock.so/0.1.0
 59 58  0  0  0  0  0  0  0  0999 V2000
  -13.2557    0.6871    3.9872 C   0  0  0  0  0  0
  -14.5140   -0.1543    4.1872 C   0  0  0  0  0  0
  -14.5690   -0.7707    5.5947 C   0  0  0  0  0  0
  -14.6152   -2.3191    5.5895 C   0  0  0  0  0  0
  -13.3354   -3.0210    6.1640 C   0  0  0  0  0  0
  -12.1492   -2.7155    5.2205 C   0  0  0  0  0  0
  -12.9974   -2.5989    7.6557 C   0  0  0  0  0  0
  -12.2369   -3.6797    8.5612 C   0  0  0  0  0  0
  -12.5964   -4.0236   10.0714 C   0  0  0  0  0  0
  -13.9043   -3.2225   10.6790 C   0  0  0  0  0  0
  -14.5600   -4.1012   11.7430 C   0  0  0  0  0  0
  -13.6229   -1.7726   11.2817 C   0  0  0  0  0  0
  -12.3279   -1.3972   12.1765 C   0  0  0  0  0  0
  -11.1530   -2.4057   12.4184 C   0  0  0  0  0  0
  -10.8996   -2.9310   13.9046 C   0  0  0  0  0  0
  -11.8510   -3.9355   14.6664 C   0  0  0  0  0  0
  -12.6978   -4.9512   13.8547 C   0  0  0  0  0  0
  -13.9401   -5.5837   14.5935 C   0  0  0  0  0  0
  -13.6414   -6.7374   15.5590 C   0  0  0  0  0  0
  -13.1643   -6.3900   16.9978 C   0  0  0  0  0  0
  -12.9030   -7.5183   18.0389 C   0  0  0  0  0  0
  -11.9446   -8.6225   17.6152 C   0  0  0  0  0  0
  -12.5096   -6.9499   19.3422 N   0  0  0  0  0  0
  -11.8785   -5.7446   16.8129 O   0  0  0  0  0  0
  -14.5994   -4.5413   15.3205 O   0  0  0  0  0  0
  -11.7280   -0.2759   11.5062 O   0  0  0  0  0  0
  -12.3566   -4.9497    7.8646 O   0  0  0  0  0  0
  -13.5561   -5.5830    7.9382 C   0  0  0  0  0  0
  -14.4589   -5.5106    7.1264 O   0  0  0  0  0  0
  -13.5487   -6.4772    9.1473 C   0  0  0  0  0  0
  -12.6216   -7.6913    8.9781 C   0  0  0  0  0  0
  -12.0696   -8.2014   10.3154 C   0  0  0  0  0  0
  -10.9981   -7.2798   10.8500 C   0  0  0  0  0  0
  -11.2293   -6.1697   11.3168 O   0  0  0  0  0  0
   -9.7618   -7.7932   10.7676 O   0  0  0  0  0  0
  -13.4715   -8.7813    8.3105 C   0  0  0  0  0  0
  -14.6508   -8.9619    8.5734 O   0  0  0  0  0  0
  -12.7995   -9.5553    7.4472 O   0  0  0  0  0  0
  -12.3333   -1.2733    7.6996 O   0  0  0  0  0  0
  -11.4577   -1.0090    8.7395 C   0  0  0  0  0  0
  -11.1473   -1.8120    9.6097 O   0  0  0  0  0  0
  -10.9049    0.4215    8.6880 C   0  0  0  0  0  0
   -9.6508    0.6309    7.7837 C   0  0  0  0  0  0
   -8.3227   -0.0077    8.2296 C   0  0  0  0  0  0
   -7.1415    0.4874    7.4459 C   0  0  0  0  0  0
   -7.1923    1.0836    6.3789 O   0  0  0  0  0  0
   -5.9750    0.2236    8.0542 O   0  0  0  0  0  0
   -9.8586    0.2613    6.3097 C   0  0  0  0  0  0
   -9.1216   -0.4950    5.7084 O   0  0  0  0  0  0
  -10.9826    0.7481    5.7432 O   0  0  0  0  0  0
  -12.0638   -7.6753   19.9022 H   0  0  0  0  0  0
  -13.3561   -6.7010   19.8590 H   0  0  0  0  0  0
  -11.3391   -6.4040   16.3276 H   0  0  0  0  0  0
  -15.4426   -4.8938   15.6601 H   0  0  0  0  0  0
  -12.2797    0.5061   11.6757 H   0  0  0  0  0  0
   -9.0700   -7.2917   11.2402 H   0  0  0  0  0  0
  -13.3605  -10.2083    6.9596 H   0  0  0  0  0  0
   -6.1911   -0.2592    8.8798 H   0  0  0  0  0  0
  -11.5524    1.2863    6.3365 H   0  0  0  0  0  0
  1  2  1  0  0  0
  2  3  1  0  0  0
  3  4  1  0  0  0
  4  5  1  0  0  0
  5  6  1  0  0  0
  5  7  1  0  0  0
  7  8  1  0  0  0
  7 39  1  0  0  0
  8  9  1  0  0  0
  8 27  1  0  0  0
  9 10  1  0  0  0
 10 11  1  0  0  0
 10 12  1  0  0  0
 12 13  1  0  0  0
 13 14  1  0  0  0
 13 26  1  0  0  0
 14 15  1  0  0  0
 15 16  1  0  0  0
 16 17  1  0  0  0
 17 18  1  0  0  0
 18 19  1  0  0  0
 18 25  1  0  0  0
 19 20  1  0  0  0
 20 21  1  0  0  0
 20 24  1  0  0  0
 21 22  1  0  0  0
 21 23  1  0  0  0
 23 51  1  0  0  0
 23 52  1  0  0  0
 24 53  1  0  0  0
 25 54  1  0  0  0
 26 55  1  0  0  0
 27 28  1  0  0  0
 28 29  2  0  0  0
 28 30  1  0  0  0
 30 31  1  0  0  0
 31 32  1  0  0  0
 31 36  1  0  0  0
 32 33  1  0  0  0
 33 34  2  0  0  0
 33 35  1  0  0  0
 35 56  1  0  0  0
 36 37  2  0  0  0
 36 38  1  0  0  0
 38 57  1  0  0  0
 39 40  1  0  0  0
 40 41  2  0  0  0
 40 42  1  0  0  0
 42 43  1  0  0  0
 43 44  1  0  0  0
 43 48  1  0  0  0
 44 45  1  0  0  0
 45 46  2  0  0  0
 45 47  1  0  0  0
 47 58  1  0  0  0
 48 49  2  0  0  0
 48 50  1  0  0  0
 50 59  1  0  0  0
M  END
>  <AUTHOR>
    GENERATED BY OPEN BABEL 2.4.1

>  <CHROM.1>
-120.10778952,112.43333121,-65.95499062,151.06771095,-136.22786056,-151.32610409
2.79149491,-76.41816655,150.61396673,-40.47361700,6.02820167,-114.75219353
74.16509436,71.17662646,27.94585942,-160.74809347,-79.84742261,82.14179019
171.07106627,177.45542152,54.07203433,-57.49152900,-162.02931447,94.81805783
-70.53334876,152.02624811,-74.41126713,-37.48326653,72.27155021,-169.98649991
-175.10259928,2.85818198,-85.41683193,-68.64548129,-168.23199782,-127.50896036
-16.09305195,1.10330940,-0.22772926,-12.04183947,-3.67451869,10.07041913
1.23482882,-1.05017985,-1.25524031

>  <COMPND>
    UNNAMED

>  <MASTER>
        0    0    0    0    0    0    0    0  109    0  109    0

>  <Name>
FB1.pdb

>  <RI>
0

>  <Rbt.Current_Directory>
/home/fc/tossine/F10/p3/0_clust01

>  <Rbt.Executable>
rbdock/0.1.0

>  <Rbt.Library>
librxdock.so/0.1.0

>  <Rbt.Parameter_File>
/cluster/rxdock/data/scripts/dock.prm

>  <Rbt.Receptor>
rx_0.prm

>  <SCORE>
66.4659

>  <SCORE.INTER>
17.8282

>  <SCORE.INTER.CONST>
1

>  <SCORE.INTER.POLAR>
-0.973596

>  <SCORE.INTER.REPUL>
0.114941

>  <SCORE.INTER.ROT>
32

>  <SCORE.INTER.VDW>
-16.8363

>  <SCORE.INTER.norm>
0.356563

>  <SCORE.INTRA>
40.8933

>  <SCORE.INTRA.DIHEDRAL>
49.4979

>  <SCORE.INTRA.DIHEDRAL.0>
47.3121

>  <SCORE.INTRA.POLAR>
1.47808

>  <SCORE.INTRA.POLAR.0>
-1.47808

>  <SCORE.INTRA.REPUL>
0

>  <SCORE.INTRA.REPUL.0>
0

>  <SCORE.INTRA.VDW>
11.1189

>  <SCORE.INTRA.VDW.0>
-2.78316

>  <SCORE.INTRA.norm>
0.817866

>  <SCORE.RESTR>
7.74443

>  <SCORE.RESTR.CAVITY>
7.74443

>  <SCORE.RESTR.norm>
0.154889

>  <SCORE.SYSTEM>
0

>  <SCORE.SYSTEM.CONST>
0

>  <SCORE.SYSTEM.DIHEDRAL>
0

>  <SCORE.SYSTEM.norm>
0

>  <SCORE.heavy>
50

>  <SCORE.norm>
1.32932

$$$$
