FB1.pdb
  RxDock  10062017233D
librxdock.so/0.1.0
 59 58  0  0  0  0  0  0  0  0999 V2000
  -11.6971   -7.2261   15.4903 C   0  0  0  0  0  0
  -10.7427   -6.4026   14.6288 C   0  0  0  0  0  0
  -10.8459   -6.7823   13.1424 C   0  0  0  0  0  0
   -9.7038   -6.1972   12.2748 C   0  0  0  0  0  0
   -9.9589   -6.2417   10.7277 C   0  0  0  0  0  0
  -10.0113   -7.7227   10.2868 C   0  0  0  0  0  0
  -11.2707   -5.4695   10.2797 C   0  0  0  0  0  0
  -11.1438   -3.8870   10.0657 C   0  0  0  0  0  0
   -9.8980   -3.0014   10.5037 C   0  0  0  0  0  0
  -10.1994   -1.3845   10.6309 C   0  0  0  0  0  0
   -8.8870   -0.6700   10.9492 C   0  0  0  0  0  0
  -10.8904   -0.6966    9.3683 C   0  0  0  0  0  0
  -11.0611    0.9022    9.1861 C   0  0  0  0  0  0
   -9.8970    1.9101    9.4782 C   0  0  0  0  0  0
   -9.8077    2.5630   10.9325 C   0  0  0  0  0  0
   -8.4588    2.9947   11.6314 C   0  0  0  0  0  0
   -8.3072    4.4406   12.1736 C   0  0  0  0  0  0
   -7.8417    5.5369   11.1390 C   0  0  0  0  0  0
   -6.7791    5.1033   10.1216 C   0  0  0  0  0  0
   -5.3142    5.5786   10.3374 C   0  0  0  0  0  0
   -4.1890    4.5522   10.6626 C   0  0  0  0  0  0
   -3.9564    3.4535    9.6349 C   0  0  0  0  0  0
   -2.9272    5.2423   10.9915 N   0  0  0  0  0  0
   -4.9288    6.1692    9.0700 O   0  0  0  0  0  0
   -8.9972    5.9892   10.4248 O   0  0  0  0  0  0
  -11.3746    1.0842    7.7950 O   0  0  0  0  0  0
  -11.2616   -3.6597    8.6350 O   0  0  0  0  0  0
  -12.5076   -3.4227    8.1486 C   0  0  0  0  0  0
  -13.5574   -3.6354    8.7249 O   0  0  0  0  0  0
  -12.3760   -2.7539    6.8081 C   0  0  0  0  0  0
  -13.4789   -1.7133    6.5568 C   0  0  0  0  0  0
  -12.9175   -0.3551    6.1169 C   0  0  0  0  0  0
  -12.4728   -0.3907    4.6732 C   0  0  0  0  0  0
  -12.9225    0.3511    3.8065 O   0  0  0  0  0  0
  -11.5326   -1.3148    4.4263 O   0  0  0  0  0  0
  -14.3664   -2.2983    5.4495 C   0  0  0  0  0  0
  -13.9317   -2.9934    4.5438 O   0  0  0  0  0  0
  -15.6561   -1.9427    5.5287 O   0  0  0  0  0  0
  -11.9150   -6.1356    9.1217 O   0  0  0  0  0  0
  -12.7344   -7.2262    9.3607 C   0  0  0  0  0  0
  -13.6291   -7.2552   10.1957 O   0  0  0  0  0  0
  -12.4000   -8.4177    8.4536 C   0  0  0  0  0  0
  -13.6224   -9.1446    7.8120 C   0  0  0  0  0  0
  -14.5949   -8.3093    6.9595 C   0  0  0  0  0  0
  -15.1084   -7.0941    7.6765 C   0  0  0  0  0  0
  -14.7450   -5.9427    7.4796 O   0  0  0  0  0  0
  -16.0555   -7.3926    8.5788 O   0  0  0  0  0  0
  -13.2658  -10.3948    6.9982 C   0  0  0  0  0  0
  -13.6070  -10.5496    5.8422 O   0  0  0  0  0  0
  -12.4508  -11.2753    7.6161 O   0  0  0  0  0  0
   -2.3194    5.2349   10.1735 H   0  0  0  0  0  0
   -2.4285    4.6933   11.6953 H   0  0  0  0  0  0
   -5.3503    7.0544    9.0720 H   0  0  0  0  0  0
   -8.7229    6.7085    9.8266 H   0  0  0  0  0  0
  -10.6572    0.6902    7.2710 H   0  0  0  0  0  0
  -11.2294   -1.3634    3.4994 H   0  0  0  0  0  0
  -15.8536   -1.2692    6.2259 H   0  0  0  0  0  0
  -16.2237   -6.5739    9.0914 H   0  0  0  0  0  0
  -12.1989  -11.0395    8.5365 H   0  0  0  0  0  0
  1  2  1  0  0  0
  2  3  1  0  0  0
  3  4  1  0  0  0
  4  5  1  0  0  0
  5  6  1  0  0  0
  5  7  1  0  0  0
  7  8  1  0  0  0
  7 39  1  0  0  0
  8  9  1  0  0  0
  8 27  1  0  0  0
  9 10  1  0  0  0
 10 11  1  0  0  0
 10 12  1  0  0  0
 12 13  1  0  0  0
 13 14  1  0  0  0
 13 26  1  0  0  0
 14 15  1  0  0  0
 15 16  1  0  0  0
 16 17  1  0  0  0
 17 18  1  0  0  0
 18 19  1  0  0  0
 18 25  1  0  0  0
 19 20  1  0  0  0
 20 21  1  0  0  0
 20 24  1  0  0  0
 21 22  1  0  0  0
 21 23  1  0  0  0
 23 51  1  0  0  0
 23 52  1  0  0  0
 24 53  1  0  0  0
 25 54  1  0  0  0
 26 55  1  0  0  0
 27 28  1  0  0  0
 28 29  2  0  0  0
 28 30  1  0  0  0
 30 31  1  0  0  0
 31 32  1  0  0  0
 31 36  1  0  0  0
 32 33  1  0  0  0
 33 34  2  0  0  0
 33 35  1  0  0  0
 35 56  1  0  0  0
 36 37  2  0  0  0
 36 38  1  0  0  0
 38 57  1  0  0  0
 39 40  1  0  0  0
 40 41  2  0  0  0
 40 42  1  0  0  0
 42 43  1  0  0  0
 43 44  1  0  0  0
 43 48  1  0  0  0
 44 45  1  0  0  0
 45 46  2  0  0  0
 45 47  1  0  0  0
 47 58  1  0  0  0
 48 49  2  0  0  0
 48 50  1  0  0  0
 50 59  1  0  0  0
M  END
>  <AUTHOR>
    GENERATED BY OPEN BABEL 2.4.1

>  <CHROM.1>
-167.91186879,-165.00651145,-65.31513963,83.68189510,-11.22943858,81.96659435
-160.79957422,91.38050888,-175.61640741,-169.96339528,45.17942115,-93.18353005
-57.24311592,149.29674407,126.46797271,-84.93978472,-38.71601868,-103.87337521
176.28727101,113.92468253,59.05994448,78.13684979,-99.87362659,-15.45443562
-144.52841459,128.77383062,75.93669108,-33.80966816,121.37575413,179.69738700
6.62770519,48.93998585,-135.50806739,56.78840355,-52.99785613,-125.61541992
104.27071172,171.07212903,2.25683203,-11.00652941,-2.44054483,8.99344775
-2.37321924,-0.86098767,-0.51944843

>  <COMPND>
    UNNAMED

>  <MASTER>
        0    0    0    0    0    0    0    0  109    0  109    0

>  <Name>
FB1.pdb

>  <RI>
0

>  <Rbt.Current_Directory>
/home/fc/tossine/F10/p3/0_clust01

>  <Rbt.Executable>
rbdock/0.1.0

>  <Rbt.Library>
librxdock.so/0.1.0

>  <Rbt.Parameter_File>
/cluster/rxdock/data/scripts/dock.prm

>  <Rbt.Receptor>
rx_2.prm

>  <SCORE>
44.1388

>  <SCORE.INTER>
8.12474

>  <SCORE.INTER.CONST>
1

>  <SCORE.INTER.POLAR>
-1.49198

>  <SCORE.INTER.REPUL>
0.137378

>  <SCORE.INTER.ROT>
32

>  <SCORE.INTER.VDW>
-24.8894

>  <SCORE.INTER.norm>
0.162495

>  <SCORE.INTRA>
23.7923

>  <SCORE.INTRA.DIHEDRAL>
33.7243

>  <SCORE.INTRA.DIHEDRAL.0>
47.3121

>  <SCORE.INTRA.POLAR>
1.47808

>  <SCORE.INTRA.POLAR.0>
-1.47808

>  <SCORE.INTRA.REPUL>
0

>  <SCORE.INTRA.REPUL.0>
0

>  <SCORE.INTRA.VDW>
1.90464

>  <SCORE.INTRA.VDW.0>
-2.78316

>  <SCORE.INTRA.norm>
0.475845

>  <SCORE.RESTR>
12.2218

>  <SCORE.RESTR.CAVITY>
12.2218

>  <SCORE.RESTR.norm>
0.244436

>  <SCORE.SYSTEM>
0

>  <SCORE.SYSTEM.CONST>
0

>  <SCORE.SYSTEM.DIHEDRAL>
0

>  <SCORE.SYSTEM.norm>
0

>  <SCORE.heavy>
50

>  <SCORE.norm>
0.882776

$$$$
