FB1.pdb
  RxDock  10062016333D
librxdock.so/0.1.0
 59 58  0  0  0  0  0  0  0  0999 V2000
    5.0089   -5.6660   -8.1223 C   0  0  0  0  0  0
    6.2122   -5.6660   -9.0622 C   0  0  0  0  0  0
    6.6699   -4.2377   -9.4012 C   0  0  0  0  0  0
    5.5204   -3.3199   -9.8872 C   0  0  0  0  0  0
    5.0691   -2.2243   -8.8594 C   0  0  0  0  0  0
    5.4999   -0.8422   -9.4025 C   0  0  0  0  0  0
    3.5136   -2.2516   -8.5469 C   0  0  0  0  0  0
    2.5488   -2.7810   -9.7109 C   0  0  0  0  0  0
    2.3287   -2.0649  -11.1134 C   0  0  0  0  0  0
    1.5358   -0.6200  -11.0442 C   0  0  0  0  0  0
    1.4547   -0.1806   -9.5832 C   0  0  0  0  0  0
    2.1482    0.5609  -11.9246 C   0  0  0  0  0  0
    1.2620    1.5943  -12.7995 C   0  0  0  0  0  0
    1.7688    2.1978  -14.1541 C   0  0  0  0  0  0
    1.2053    3.6213  -14.6070 C   0  0  0  0  0  0
   -0.3135    3.9155  -14.9253 C   0  0  0  0  0  0
   -0.7380    4.2571  -16.3781 C   0  0  0  0  0  0
   -2.1855    4.8553  -16.5680 C   0  0  0  0  0  0
   -3.3557    3.9226  -16.2312 C   0  0  0  0  0  0
   -4.5808    4.5180  -15.4809 C   0  0  0  0  0  0
   -5.6636    5.3291  -16.2524 C   0  0  0  0  0  0
   -7.0126    4.6494  -16.4413 C   0  0  0  0  0  0
   -5.8279    6.6740  -15.6688 N   0  0  0  0  0  0
   -5.2826    3.3650  -14.9500 O   0  0  0  0  0  0
   -2.2894    6.0278  -15.7530 O   0  0  0  0  0  0
    0.0696    0.8653  -13.1363 O   0  0  0  0  0  0
    3.0211   -4.1115  -10.0565 O   0  0  0  0  0  0
    2.1046   -4.9810  -10.5558 C   0  0  0  0  0  0
    1.4833   -4.8539  -11.5937 O   0  0  0  0  0  0
    2.0557   -6.1876   -9.6597 C   0  0  0  0  0  0
    2.6335   -7.4444  -10.3298 C   0  0  0  0  0  0
    4.0812   -7.2490  -10.7982 C   0  0  0  0  0  0
    4.6963   -8.5601  -11.2294 C   0  0  0  0  0  0
    5.9018   -8.7264  -11.3809 O   0  0  0  0  0  0
    3.7949   -9.5326  -11.4308 O   0  0  0  0  0  0
    2.5692   -8.5542   -9.2714 C   0  0  0  0  0  0
    1.7110   -9.4236   -9.2679 O   0  0  0  0  0  0
    3.5062   -8.4637   -8.3176 O   0  0  0  0  0  0
    3.2393   -2.9210   -7.2521 O   0  0  0  0  0  0
    3.7587   -2.3604   -6.0972 C   0  0  0  0  0  0
    4.8851   -1.8920   -5.9962 O   0  0  0  0  0  0
    2.7580   -2.3865   -4.9344 C   0  0  0  0  0  0
    2.8171   -1.1673   -3.9624 C   0  0  0  0  0  0
    2.5090    0.2288   -4.5337 C   0  0  0  0  0  0
    3.7238    1.1064   -4.6252 C   0  0  0  0  0  0
    3.9533    2.0827   -3.9246 O   0  0  0  0  0  0
    4.5823    0.6973   -5.5718 O   0  0  0  0  0  0
    1.9826   -1.3286   -2.6857 C   0  0  0  0  0  0
    1.0521   -0.5978   -2.4085 O   0  0  0  0  0  0
    2.2793   -2.4080   -1.9321 O   0  0  0  0  0  0
   -5.8489    7.3634  -16.4190 H   0  0  0  0  0  0
   -4.9905    6.8996  -15.1272 H   0  0  0  0  0  0
   -4.5823    2.8210  -14.5318 H   0  0  0  0  0  0
   -3.1687    6.4227  -15.8988 H   0  0  0  0  0  0
   -0.3141    0.5196  -12.3131 H   0  0  0  0  0  0
    2.9588   -9.2462  -11.8459 H   0  0  0  0  0  0
    3.4361   -9.1491   -7.6076 H   0  0  0  0  0  0
    5.3486    1.3081   -5.5396 H   0  0  0  0  0  0
    1.5466   -2.7395   -1.3669 H   0  0  0  0  0  0
  1  2  1  0  0  0
  2  3  1  0  0  0
  3  4  1  0  0  0
  4  5  1  0  0  0
  5  6  1  0  0  0
  5  7  1  0  0  0
  7  8  1  0  0  0
  7 39  1  0  0  0
  8  9  1  0  0  0
  8 27  1  0  0  0
  9 10  1  0  0  0
 10 11  1  0  0  0
 10 12  1  0  0  0
 12 13  1  0  0  0
 13 14  1  0  0  0
 13 26  1  0  0  0
 14 15  1  0  0  0
 15 16  1  0  0  0
 16 17  1  0  0  0
 17 18  1  0  0  0
 18 19  1  0  0  0
 18 25  1  0  0  0
 19 20  1  0  0  0
 20 21  1  0  0  0
 20 24  1  0  0  0
 21 22  1  0  0  0
 21 23  1  0  0  0
 23 51  1  0  0  0
 23 52  1  0  0  0
 24 53  1  0  0  0
 25 54  1  0  0  0
 26 55  1  0  0  0
 27 28  1  0  0  0
 28 29  2  0  0  0
 28 30  1  0  0  0
 30 31  1  0  0  0
 31 32  1  0  0  0
 31 36  1  0  0  0
 32 33  1  0  0  0
 33 34  2  0  0  0
 33 35  1  0  0  0
 35 56  1  0  0  0
 36 37  2  0  0  0
 36 38  1  0  0  0
 38 57  1  0  0  0
 39 40  1  0  0  0
 40 41  2  0  0  0
 40 42  1  0  0  0
 42 43  1  0  0  0
 43 44  1  0  0  0
 43 48  1  0  0  0
 44 45  1  0  0  0
 45 46  2  0  0  0
 45 47  1  0  0  0
 47 58  1  0  0  0
 48 49  2  0  0  0
 48 50  1  0  0  0
 50 59  1  0  0  0
M  END
>  <AUTHOR>
    GENERATED BY OPEN BABEL 2.4.1

>  <CHROM.1>
-50.73088601,107.53628757,110.44125332,-29.06925909,-65.15079749,62.22293985
-68.24414906,152.39734743,11.59416802,138.04806178,-146.92041154,-152.93096995
53.36222127,-62.86012730,-113.01233299,-166.48815696,-65.78748376,139.45942758
177.47678704,79.66986486,108.22158539,47.45067886,134.12194242,62.88929405
-110.62150105,57.16633223,170.12067499,101.92943914,-164.45239302,38.21755862
176.82917156,-41.50818904,-145.28421531,62.27275629,-109.09539270,-117.88304987
-109.18864214,-178.32449733,-154.37573785,1.76652132,-1.44651220,-10.14953677
0.05489985,1.04786733,-2.31059754

>  <COMPND>
    UNNAMED

>  <MASTER>
        0    0    0    0    0    0    0    0  109    0  109    0

>  <Name>
FB1.pdb

>  <RI>
0

>  <Rbt.Current_Directory>
/home/fc/tossine/F10/p3/0_clust01

>  <Rbt.Executable>
rbdock/0.1.0

>  <Rbt.Library>
librxdock.so/0.1.0

>  <Rbt.Parameter_File>
/cluster/rxdock/data/scripts/dock.prm

>  <Rbt.Receptor>
rx_1.prm

>  <SCORE>
91.7262

>  <SCORE.INTER>
37.7701

>  <SCORE.INTER.CONST>
1

>  <SCORE.INTER.POLAR>
-2.63158

>  <SCORE.INTER.REPUL>
0.451544

>  <SCORE.INTER.ROT>
32

>  <SCORE.INTER.VDW>
7.05975

>  <SCORE.INTER.norm>
0.755402

>  <SCORE.INTRA>
44.4346

>  <SCORE.INTRA.DIHEDRAL>
65.1534

>  <SCORE.INTRA.DIHEDRAL.0>
47.3121

>  <SCORE.INTRA.POLAR>
1.47808

>  <SCORE.INTRA.POLAR.0>
-1.47808

>  <SCORE.INTRA.REPUL>
0

>  <SCORE.INTRA.REPUL.0>
0

>  <SCORE.INTRA.VDW>
6.83249

>  <SCORE.INTRA.VDW.0>
-2.78316

>  <SCORE.INTRA.norm>
0.888693

>  <SCORE.RESTR>
9.52146

>  <SCORE.RESTR.CAVITY>
9.52146

>  <SCORE.RESTR.norm>
0.190429

>  <SCORE.SYSTEM>
0

>  <SCORE.SYSTEM.CONST>
0

>  <SCORE.SYSTEM.DIHEDRAL>
0

>  <SCORE.SYSTEM.norm>
0

>  <SCORE.heavy>
50

>  <SCORE.norm>
1.83452

$$$$
