FB1.pdb
  RxDock  10062016383D
librxdock.so/0.1.0
 59 58  0  0  0  0  0  0  0  0999 V2000
  -14.8241   -0.3135   10.9581 C   0  0  0  0  0  0
  -13.4079    0.0053   10.4847 C   0  0  0  0  0  0
  -12.4866    0.3808   11.6570 C   0  0  0  0  0  0
  -10.9833    0.3886   11.2831 C   0  0  0  0  0  0
  -10.6822    0.5923    9.7572 C   0  0  0  0  0  0
   -9.1486    0.6445    9.5678 C   0  0  0  0  0  0
  -11.3311   -0.5197    8.8297 C   0  0  0  0  0  0
  -12.2934   -1.5856    9.5395 C   0  0  0  0  0  0
  -12.8422   -2.9158    8.8630 C   0  0  0  0  0  0
  -14.0594   -3.6675    9.6843 C   0  0  0  0  0  0
  -15.0203   -4.2848    8.6695 C   0  0  0  0  0  0
  -13.6143   -4.7756   10.7420 C   0  0  0  0  0  0
  -12.8946   -6.1701   10.3471 C   0  0  0  0  0  0
  -13.7049   -7.4447    9.9286 C   0  0  0  0  0  0
  -14.0957   -7.6226    8.3909 C   0  0  0  0  0  0
  -13.7587   -6.5717    7.2610 C   0  0  0  0  0  0
  -13.7223   -7.0281    5.7785 C   0  0  0  0  0  0
  -12.9517   -6.0905    4.7704 C   0  0  0  0  0  0
  -13.4676   -4.6510    4.6515 C   0  0  0  0  0  0
  -14.6013   -4.3562    3.6287 C   0  0  0  0  0  0
  -14.2959   -4.3023    2.1025 C   0  0  0  0  0  0
  -15.4341   -3.8480    1.1995 C   0  0  0  0  0  0
  -13.0708   -3.5240    1.8389 N   0  0  0  0  0  0
  -15.5339   -5.4559    3.7864 O   0  0  0  0  0  0
  -11.5770   -6.0495    5.1680 O   0  0  0  0  0  0
  -12.0771   -5.8544    9.2076 O   0  0  0  0  0  0
  -11.5852   -2.0488   10.7213 O   0  0  0  0  0  0
  -10.8141   -3.1585   10.5829 C   0  0  0  0  0  0
  -10.0271   -3.3799    9.6824 O   0  0  0  0  0  0
  -11.0182   -4.0333   11.7889 C   0  0  0  0  0  0
   -9.8350   -4.9825   12.0367 C   0  0  0  0  0  0
   -8.8616   -4.4464   13.0942 C   0  0  0  0  0  0
   -9.5947   -4.0276   14.3474 C   0  0  0  0  0  0
  -10.2021   -2.9679   14.4559 O   0  0  0  0  0  0
   -9.5203   -4.9301   15.3368 O   0  0  0  0  0  0
  -10.4489   -6.3069   12.5112 C   0  0  0  0  0  0
  -10.6777   -7.2429   11.7602 O   0  0  0  0  0  0
  -10.7611   -6.3363   13.8141 O   0  0  0  0  0  0
  -11.9617    0.0843    7.6308 O   0  0  0  0  0  0
  -12.3062   -0.7469    6.5779 C   0  0  0  0  0  0
  -12.0748   -1.9481    6.5346 O   0  0  0  0  0  0
  -13.0221    0.0067    5.4493 C   0  0  0  0  0  0
  -13.7768   -0.8829    4.4131 C   0  0  0  0  0  0
  -15.1992   -1.3551    4.7653 C   0  0  0  0  0  0
  -15.2210   -2.3940    5.8491 C   0  0  0  0  0  0
  -14.2382   -2.8742    6.3970 O   0  0  0  0  0  0
  -16.4679   -2.7518    6.1921 O   0  0  0  0  0  0
  -13.8302   -0.3033    2.9942 C   0  0  0  0  0  0
  -13.4447   -0.9136    2.0167 O   0  0  0  0  0  0
  -14.4360    0.8973    2.8812 O   0  0  0  0  0  0
  -13.3281   -2.5687    1.5943 H   0  0  0  0  0  0
  -12.6200   -3.8981    1.0008 H   0  0  0  0  0  0
  -15.0555   -6.2371    3.4369 H   0  0  0  0  0  0
  -11.5383   -5.7667    6.1003 H   0  0  0  0  0  0
  -11.5346   -6.6339    9.0014 H   0  0  0  0  0  0
   -8.6431   -5.3406   15.4612 H   0  0  0  0  0  0
  -11.3597   -7.0793   14.0757 H   0  0  0  0  0  0
  -17.0666   -2.0626    5.8347 H   0  0  0  0  0  0
  -14.4239    1.2905    1.9804 H   0  0  0  0  0  0
  1  2  1  0  0  0
  2  3  1  0  0  0
  3  4  1  0  0  0
  4  5  1  0  0  0
  5  6  1  0  0  0
  5  7  1  0  0  0
  7  8  1  0  0  0
  7 39  1  0  0  0
  8  9  1  0  0  0
  8 27  1  0  0  0
  9 10  1  0  0  0
 10 11  1  0  0  0
 10 12  1  0  0  0
 12 13  1  0  0  0
 13 14  1  0  0  0
 13 26  1  0  0  0
 14 15  1  0  0  0
 15 16  1  0  0  0
 16 17  1  0  0  0
 17 18  1  0  0  0
 18 19  1  0  0  0
 18 25  1  0  0  0
 19 20  1  0  0  0
 20 21  1  0  0  0
 20 24  1  0  0  0
 21 22  1  0  0  0
 21 23  1  0  0  0
 23 51  1  0  0  0
 23 52  1  0  0  0
 24 53  1  0  0  0
 25 54  1  0  0  0
 26 55  1  0  0  0
 27 28  1  0  0  0
 28 29  2  0  0  0
 28 30  1  0  0  0
 30 31  1  0  0  0
 31 32  1  0  0  0
 31 36  1  0  0  0
 32 33  1  0  0  0
 33 34  2  0  0  0
 33 35  1  0  0  0
 35 56  1  0  0  0
 36 37  2  0  0  0
 36 38  1  0  0  0
 38 57  1  0  0  0
 39 40  1  0  0  0
 40 41  2  0  0  0
 40 42  1  0  0  0
 42 43  1  0  0  0
 43 44  1  0  0  0
 43 48  1  0  0  0
 44 45  1  0  0  0
 45 46  2  0  0  0
 45 47  1  0  0  0
 47 58  1  0  0  0
 48 49  2  0  0  0
 48 50  1  0  0  0
 50 59  1  0  0  0
M  END
>  <AUTHOR>
    GENERATED BY OPEN BABEL 2.4.1

>  <CHROM.1>
166.49025162,23.41733181,177.25860090,5.59138227,-168.88116320,165.72322066
-167.49153285,-92.04407967,144.94741778,-65.83830584,-85.31492952,87.52623203
172.80329314,-2.03772236,158.65900778,-161.10492348,-59.41489998,-87.59357748
-55.22340176,-74.82455524,-173.08997930,-68.96315102,-96.59052385,46.19615522
-156.55971691,97.82461905,50.36690631,95.69195085,-78.80870175,41.98078863
164.99170966,-3.39810086,-164.33462009,83.37981462,-71.23786260,125.30149557
-2.05744686,-16.09948809,176.65646730,-12.62840834,-3.26302814,8.18051241
-0.36128189,-1.17024400,-0.24082147

>  <COMPND>
    UNNAMED

>  <MASTER>
        0    0    0    0    0    0    0    0  109    0  109    0

>  <Name>
FB1.pdb

>  <RI>
0

>  <Rbt.Current_Directory>
/home/fc/tossine/F10/p3/0_clust01

>  <Rbt.Executable>
rbdock/0.1.0

>  <Rbt.Library>
librxdock.so/0.1.0

>  <Rbt.Parameter_File>
/cluster/rxdock/data/scripts/dock.prm

>  <Rbt.Receptor>
rx_1.prm

>  <SCORE>
1111.18

>  <SCORE.INTER>
1050.34

>  <SCORE.INTER.CONST>
1

>  <SCORE.INTER.POLAR>
-0.000184758

>  <SCORE.INTER.REPUL>
2.61191

>  <SCORE.INTER.ROT>
32

>  <SCORE.INTER.VDW>
999.886

>  <SCORE.INTER.norm>
21.0069

>  <SCORE.INTRA>
49.8154

>  <SCORE.INTRA.DIHEDRAL>
34.4248

>  <SCORE.INTRA.DIHEDRAL.0>
47.3121

>  <SCORE.INTRA.POLAR>
0.482364

>  <SCORE.INTRA.POLAR.0>
-1.47808

>  <SCORE.INTRA.REPUL>
0

>  <SCORE.INTRA.REPUL.0>
0

>  <SCORE.INTRA.VDW>
30.9629

>  <SCORE.INTRA.VDW.0>
-2.78316

>  <SCORE.INTRA.norm>
0.996308

>  <SCORE.RESTR>
11.0179

>  <SCORE.RESTR.CAVITY>
11.0179

>  <SCORE.RESTR.norm>
0.220358

>  <SCORE.SYSTEM>
0

>  <SCORE.SYSTEM.CONST>
0

>  <SCORE.SYSTEM.DIHEDRAL>
0

>  <SCORE.SYSTEM.norm>
0

>  <SCORE.heavy>
50

>  <SCORE.norm>
22.2236

$$$$
