FB1.pdb
  RxDock  10062018273D
librxdock.so/0.1.0
 59 58  0  0  0  0  0  0  0  0999 V2000
   11.5856   -0.8341   -4.7614 C   0  0  0  0  0  0
   10.6353   -0.1639   -5.7508 C   0  0  0  0  0  0
    9.2590   -0.8491   -5.7718 C   0  0  0  0  0  0
    8.2571   -0.1925   -6.7540 C   0  0  0  0  0  0
    6.7466   -0.3483   -6.3609 C   0  0  0  0  0  0
    6.0291    0.9905   -6.6497 C   0  0  0  0  0  0
    6.0212   -1.5516   -7.0984 C   0  0  0  0  0  0
    4.9896   -2.4180   -6.2316 C   0  0  0  0  0  0
    5.2560   -3.8913   -5.6963 C   0  0  0  0  0  0
    5.7518   -4.9720   -6.8397 C   0  0  0  0  0  0
    5.0455   -6.3031   -6.5878 C   0  0  0  0  0  0
    5.5415   -4.5341   -8.3592 C   0  0  0  0  0  0
    4.6734   -5.3760   -9.4346 C   0  0  0  0  0  0
    4.9201   -6.8998   -9.7049 C   0  0  0  0  0  0
    3.9161   -7.6683  -10.6800 C   0  0  0  0  0  0
    2.3522   -7.4479  -10.6985 C   0  0  0  0  0  0
    1.7674   -6.1741  -11.3641 C   0  0  0  0  0  0
    0.5205   -5.5168  -10.6553 C   0  0  0  0  0  0
   -0.5631   -6.4804  -10.1556 C   0  0  0  0  0  0
   -2.0347   -6.2231  -10.5874 C   0  0  0  0  0  0
   -2.5516   -6.7178  -11.9707 C   0  0  0  0  0  0
   -3.8724   -6.1316  -12.4495 C   0  0  0  0  0  0
   -1.5071   -6.5770  -13.0030 N   0  0  0  0  0  0
   -2.8346   -6.9369   -9.6105 O   0  0  0  0  0  0
    0.9971   -4.7520   -9.5428 O   0  0  0  0  0  0
    3.3184   -5.2934   -8.9615 O   0  0  0  0  0  0
    4.7157   -1.6435   -5.0326 O   0  0  0  0  0  0
    3.4546   -1.1605   -4.8851 C   0  0  0  0  0  0
    2.4937   -1.4340   -5.5788 O   0  0  0  0  0  0
    3.4151   -0.3021   -3.6509 C   0  0  0  0  0  0
    4.2394    0.9865   -3.8015 C   0  0  0  0  0  0
    3.4092    2.1560   -4.3459 C   0  0  0  0  0  0
    3.0032    1.9147   -5.7813 C   0  0  0  0  0  0
    3.5030    2.5011   -6.7353 O   0  0  0  0  0  0
    2.0397    0.9915   -5.9160 O   0  0  0  0  0  0
    4.7599    1.3208   -2.3968 C   0  0  0  0  0  0
    4.6771    0.5488   -1.4536 O   0  0  0  0  0  0
    5.2710    2.5537   -2.2753 O   0  0  0  0  0  0
    5.4310   -1.1124   -8.3863 O   0  0  0  0  0  0
    4.1290   -0.6405   -8.3877 C   0  0  0  0  0  0
    3.6015   -0.0496   -7.4545 O   0  0  0  0  0  0
    3.4011   -0.9393   -9.7050 C   0  0  0  0  0  0
    2.6905    0.2763  -10.3771 C   0  0  0  0  0  0
    2.0906    0.0778  -11.7811 C   0  0  0  0  0  0
    1.7231   -1.3500  -12.0654 C   0  0  0  0  0  0
    0.6094   -1.7526  -12.3723 O   0  0  0  0  0  0
    2.7731   -2.1795  -11.9672 O   0  0  0  0  0  0
    1.6117    0.9417   -9.5136 C   0  0  0  0  0  0
    1.4816    0.7129   -8.3272 O   0  0  0  0  0  0
    0.8748    1.8871  -10.1336 O   0  0  0  0  0  0
   -1.2713   -7.4990  -13.3675 H   0  0  0  0  0  0
   -0.6499   -6.2429  -12.5569 H   0  0  0  0  0  0
   -2.5991   -7.8798   -9.7404 H   0  0  0  0  0  0
    0.7486   -3.8201   -9.6855 H   0  0  0  0  0  0
    2.9907   -4.3967   -9.1431 H   0  0  0  0  0  0
    1.9407    0.6207   -6.8139 H   0  0  0  0  0  0
    5.6865    2.7407   -1.3971 H   0  0  0  0  0  0
    3.5771   -1.6186  -11.9824 H   0  0  0  0  0  0
    1.3327    2.3677  -10.8585 H   0  0  0  0  0  0
  1  2  1  0  0  0
  2  3  1  0  0  0
  3  4  1  0  0  0
  4  5  1  0  0  0
  5  6  1  0  0  0
  5  7  1  0  0  0
  7  8  1  0  0  0
  7 39  1  0  0  0
  8  9  1  0  0  0
  8 27  1  0  0  0
  9 10  1  0  0  0
 10 11  1  0  0  0
 10 12  1  0  0  0
 12 13  1  0  0  0
 13 14  1  0  0  0
 13 26  1  0  0  0
 14 15  1  0  0  0
 15 16  1  0  0  0
 16 17  1  0  0  0
 17 18  1  0  0  0
 18 19  1  0  0  0
 18 25  1  0  0  0
 19 20  1  0  0  0
 20 21  1  0  0  0
 20 24  1  0  0  0
 21 22  1  0  0  0
 21 23  1  0  0  0
 23 51  1  0  0  0
 23 52  1  0  0  0
 24 53  1  0  0  0
 25 54  1  0  0  0
 26 55  1  0  0  0
 27 28  1  0  0  0
 28 29  2  0  0  0
 28 30  1  0  0  0
 30 31  1  0  0  0
 31 32  1  0  0  0
 31 36  1  0  0  0
 32 33  1  0  0  0
 33 34  2  0  0  0
 33 35  1  0  0  0
 35 56  1  0  0  0
 36 37  2  0  0  0
 36 38  1  0  0  0
 38 57  1  0  0  0
 39 40  1  0  0  0
 40 41  2  0  0  0
 40 42  1  0  0  0
 42 43  1  0  0  0
 43 44  1  0  0  0
 43 48  1  0  0  0
 44 45  1  0  0  0
 45 46  2  0  0  0
 45 47  1  0  0  0
 47 58  1  0  0  0
 48 49  2  0  0  0
 48 50  1  0  0  0
 50 59  1  0  0  0
M  END
>  <AUTHOR>
    GENERATED BY OPEN BABEL 2.4.1

>  <CHROM.1>
179.46823358,-152.06886429,139.35439325,140.27352862,-106.64663191,-90.00406554
-51.77537337,113.22336564,-139.26651066,-121.92746811,-52.64921850,174.11232410
73.91963354,-40.13410089,76.05428586,-142.20843985,-42.91035898,-127.64351040
118.96702549,82.70870577,-165.28235956,-63.79620601,117.78349733,8.78344000
67.73019110,90.72435839,-67.94920350,10.61503178,-106.49490849,-162.55123042
-174.32426236,31.25955222,-129.40807464,172.73666306,25.83816990,12.85640996
122.16450252,-15.83374259,-29.02354742,3.34965674,-2.17214121,-7.96993175
-0.85801257,0.48992099,-2.72238592

>  <COMPND>
    UNNAMED

>  <MASTER>
        0    0    0    0    0    0    0    0  109    0  109    0

>  <Name>
FB1.pdb

>  <RI>
0

>  <Rbt.Current_Directory>
/home/fc/tossine/F10/p3/0_clust01

>  <Rbt.Executable>
rbdock/0.1.0

>  <Rbt.Library>
librxdock.so/0.1.0

>  <Rbt.Parameter_File>
/cluster/rxdock/data/scripts/dock.prm

>  <Rbt.Receptor>
rx_4.prm

>  <SCORE>
70.3827

>  <SCORE.INTER>
16.4376

>  <SCORE.INTER.CONST>
1

>  <SCORE.INTER.POLAR>
-1.77666

>  <SCORE.INTER.REPUL>
0.475487

>  <SCORE.INTER.ROT>
32

>  <SCORE.INTER.VDW>
-17.2992

>  <SCORE.INTER.norm>
0.328751

>  <SCORE.INTRA>
34.82

>  <SCORE.INTRA.DIHEDRAL>
49.6562

>  <SCORE.INTRA.DIHEDRAL.0>
47.3121

>  <SCORE.INTRA.POLAR>
0.41742

>  <SCORE.INTRA.POLAR.0>
-1.47808

>  <SCORE.INTRA.REPUL>
0.0318193

>  <SCORE.INTRA.REPUL.0>
0

>  <SCORE.INTRA.VDW>
8.41362

>  <SCORE.INTRA.VDW.0>
-2.78316

>  <SCORE.INTRA.norm>
0.696401

>  <SCORE.RESTR>
19.1251

>  <SCORE.RESTR.CAVITY>
19.1251

>  <SCORE.RESTR.norm>
0.382502

>  <SCORE.SYSTEM>
0

>  <SCORE.SYSTEM.CONST>
0

>  <SCORE.SYSTEM.DIHEDRAL>
0

>  <SCORE.SYSTEM.norm>
0

>  <SCORE.heavy>
50

>  <SCORE.norm>
1.40765

$$$$
