FB1.pdb
  RxDock  10062016003D
librxdock.so/0.1.0
 59 58  0  0  0  0  0  0  0  0999 V2000
   -9.4814    2.7922   10.9105 C   0  0  0  0  0  0
  -10.0350    1.6370   11.7414 C   0  0  0  0  0  0
   -9.6859    0.2729   11.1237 C   0  0  0  0  0  0
  -10.2890   -0.9271   11.8957 C   0  0  0  0  0  0
  -11.7470   -1.3210   11.4720 C   0  0  0  0  0  0
  -12.4513   -0.0582   10.9244 C   0  0  0  0  0  0
  -11.8017   -2.5043   10.4162 C   0  0  0  0  0  0
  -11.8439   -3.9957   10.9992 C   0  0  0  0  0  0
  -12.1140   -4.3767   12.5191 C   0  0  0  0  0  0
  -10.7866   -4.3334   13.4976 C   0  0  0  0  0  0
  -10.7683   -2.9935   14.2313 C   0  0  0  0  0  0
  -10.6514   -5.5226   14.5522 C   0  0  0  0  0  0
  -10.4370   -7.0747   14.1475 C   0  0  0  0  0  0
  -11.4998   -8.1810   14.4677 C   0  0  0  0  0  0
  -11.7233   -8.5977   15.9927 C   0  0  0  0  0  0
  -12.6204   -7.7911   17.0120 C   0  0  0  0  0  0
  -12.2656   -6.3173   17.3427 C   0  0  0  0  0  0
  -12.8411   -5.2175   16.3689 C   0  0  0  0  0  0
  -14.3427   -4.9267   16.4840 C   0  0  0  0  0  0
  -15.1651   -4.7657   15.1741 C   0  0  0  0  0  0
  -15.3958   -5.9825   14.2299 C   0  0  0  0  0  0
  -14.1491   -6.6389   13.6536 C   0  0  0  0  0  0
  -16.2721   -6.9836   14.8674 N   0  0  0  0  0  0
  -16.4905   -4.3778   15.6175 O   0  0  0  0  0  0
  -12.1231   -4.0011   16.6027 O   0  0  0  0  0  0
  -10.3201   -7.0702   12.7147 O   0  0  0  0  0  0
  -12.8872   -4.6903   10.2633 O   0  0  0  0  0  0
  -13.0290   -6.0202   10.5012 C   0  0  0  0  0  0
  -12.5174   -6.6471   11.4093 O   0  0  0  0  0  0
  -14.0117   -6.5790    9.5095 C   0  0  0  0  0  0
  -13.3233   -7.2589    8.3152 C   0  0  0  0  0  0
  -12.0881   -8.0683    8.7305 C   0  0  0  0  0  0
  -10.9212   -7.1604    9.0427 C   0  0  0  0  0  0
  -10.0263   -7.4519    9.8288 O   0  0  0  0  0  0
  -10.9546   -5.9982    8.3740 O   0  0  0  0  0  0
  -14.3758   -8.1880    7.6946 C   0  0  0  0  0  0
  -14.9473   -9.0640    8.3258 O   0  0  0  0  0  0
  -14.5828   -7.9924    6.3851 O   0  0  0  0  0  0
  -12.8643   -2.2731    9.4075 O   0  0  0  0  0  0
  -12.4994   -2.1833    8.0745 C   0  0  0  0  0  0
  -11.3615   -2.3413    7.6519 O   0  0  0  0  0  0
  -13.6910   -1.8600    7.1635 C   0  0  0  0  0  0
  -13.3891   -1.8462    5.6328 C   0  0  0  0  0  0
  -12.7637   -3.1064    5.0074 C   0  0  0  0  0  0
  -13.6962   -4.2832    5.0020 C   0  0  0  0  0  0
  -14.0861   -4.8892    5.9906 O   0  0  0  0  0  0
  -14.0969   -4.6148    3.7652 O   0  0  0  0  0  0
  -14.5792   -1.4463    4.7518 C   0  0  0  0  0  0
  -14.7394   -1.8728    3.6252 O   0  0  0  0  0  0
  -15.5051   -0.6662    5.3479 O   0  0  0  0  0  0
  -16.5185   -7.6965   14.1822 H   0  0  0  0  0  0
  -17.1579   -6.5347   15.1108 H   0  0  0  0  0  0
  -16.7272   -5.0425   16.2983 H   0  0  0  0  0  0
  -12.5969   -3.2771   16.1535 H   0  0  0  0  0  0
   -9.6493   -6.4110   12.4697 H   0  0  0  0  0  0
  -10.1755   -5.4230    8.4992 H   0  0  0  0  0  0
  -15.2519   -8.5987    5.9807 H   0  0  0  0  0  0
  -13.8665   -3.8603    3.1831 H   0  0  0  0  0  0
  -16.2944   -0.4584    4.8002 H   0  0  0  0  0  0
  1  2  1  0  0  0
  2  3  1  0  0  0
  3  4  1  0  0  0
  4  5  1  0  0  0
  5  6  1  0  0  0
  5  7  1  0  0  0
  7  8  1  0  0  0
  7 39  1  0  0  0
  8  9  1  0  0  0
  8 27  1  0  0  0
  9 10  1  0  0  0
 10 11  1  0  0  0
 10 12  1  0  0  0
 12 13  1  0  0  0
 13 14  1  0  0  0
 13 26  1  0  0  0
 14 15  1  0  0  0
 15 16  1  0  0  0
 16 17  1  0  0  0
 17 18  1  0  0  0
 18 19  1  0  0  0
 18 25  1  0  0  0
 19 20  1  0  0  0
 20 21  1  0  0  0
 20 24  1  0  0  0
 21 22  1  0  0  0
 21 23  1  0  0  0
 23 51  1  0  0  0
 23 52  1  0  0  0
 24 53  1  0  0  0
 25 54  1  0  0  0
 26 55  1  0  0  0
 27 28  1  0  0  0
 28 29  2  0  0  0
 28 30  1  0  0  0
 30 31  1  0  0  0
 31 32  1  0  0  0
 31 36  1  0  0  0
 32 33  1  0  0  0
 33 34  2  0  0  0
 33 35  1  0  0  0
 35 56  1  0  0  0
 36 37  2  0  0  0
 36 38  1  0  0  0
 38 57  1  0  0  0
 39 40  1  0  0  0
 40 41  2  0  0  0
 40 42  1  0  0  0
 42 43  1  0  0  0
 43 44  1  0  0  0
 43 48  1  0  0  0
 44 45  1  0  0  0
 45 46  2  0  0  0
 45 47  1  0  0  0
 47 58  1  0  0  0
 48 49  2  0  0  0
 48 50  1  0  0  0
 50 59  1  0  0  0
M  END
>  <AUTHOR>
    GENERATED BY OPEN BABEL 2.4.1

>  <CHROM.1>
-177.08871213,86.70207610,-27.39901382,88.54319576,12.35588631,120.09147488
-84.28103403,174.18654632,97.51183719,64.99533305,-115.71093205,-69.40736713
51.21890734,81.28331235,-60.55543424,85.90834839,73.64144446,-136.75843301
-167.73847600,67.55502654,-60.04991362,-50.83362218,171.60417229,12.19035970
98.45013894,39.69694326,-75.27714692,-56.57254048,152.15849732,-175.13132871
179.20415815,3.47204608,-175.59139666,55.47130302,67.79430204,-149.07933977
-68.00618418,-14.55550714,-176.27576501,-12.71044843,-4.52089115,10.74919826
-1.81481613,1.24505060,2.10848635

>  <COMPND>
    UNNAMED

>  <MASTER>
        0    0    0    0    0    0    0    0  109    0  109    0

>  <Name>
FB1.pdb

>  <RI>
0

>  <Rbt.Current_Directory>
/home/fc/tossine/F10/p3/0_clust01

>  <Rbt.Executable>
rbdock/0.1.0

>  <Rbt.Library>
librxdock.so/0.1.0

>  <Rbt.Parameter_File>
/cluster/rxdock/data/scripts/dock.prm

>  <Rbt.Receptor>
rx_0.prm

>  <SCORE>
55.1673

>  <SCORE.INTER>
26.9898

>  <SCORE.INTER.CONST>
1

>  <SCORE.INTER.POLAR>
-1.19551

>  <SCORE.INTER.REPUL>
1.1161

>  <SCORE.INTER.ROT>
32

>  <SCORE.INTER.VDW>
-11.926

>  <SCORE.INTER.norm>
0.539795

>  <SCORE.INTRA>
25.9287

>  <SCORE.INTRA.DIHEDRAL>
17.7844

>  <SCORE.INTRA.DIHEDRAL.0>
47.3121

>  <SCORE.INTRA.POLAR>
1.21677

>  <SCORE.INTRA.POLAR.0>
-1.47808

>  <SCORE.INTRA.REPUL>
0.551657

>  <SCORE.INTRA.REPUL.0>
0

>  <SCORE.INTRA.VDW>
10.1413

>  <SCORE.INTRA.VDW.0>
-2.78316

>  <SCORE.INTRA.norm>
0.518575

>  <SCORE.RESTR>
2.2488

>  <SCORE.RESTR.CAVITY>
2.2488

>  <SCORE.RESTR.norm>
0.0449761

>  <SCORE.SYSTEM>
0

>  <SCORE.SYSTEM.CONST>
0

>  <SCORE.SYSTEM.DIHEDRAL>
0

>  <SCORE.SYSTEM.norm>
0

>  <SCORE.heavy>
50

>  <SCORE.norm>
1.10335

$$$$
