FB1.pdb
  RxDock  10062017563D
librxdock.so/0.1.0
 59 58  0  0  0  0  0  0  0  0999 V2000
    1.1489  -10.0803   -3.9881 C   0  0  0  0  0  0
    0.7448  -11.2148   -3.0495 C   0  0  0  0  0  0
    0.2030  -10.6822   -1.7127 C   0  0  0  0  0  0
   -1.1916  -10.0185   -1.8321 C   0  0  0  0  0  0
   -2.0411  -10.0223   -0.5134 C   0  0  0  0  0  0
   -2.6053  -11.4464   -0.3034 C   0  0  0  0  0  0
   -1.2316   -9.5387    0.7628 C   0  0  0  0  0  0
   -1.9925   -8.5593    1.7767 C   0  0  0  0  0  0
   -2.5867   -7.1336    1.3993 C   0  0  0  0  0  0
   -4.0370   -7.1659    0.6137 C   0  0  0  0  0  0
   -5.1475   -6.9272    1.6354 C   0  0  0  0  0  0
   -4.2007   -6.1465   -0.6024 C   0  0  0  0  0  0
   -5.2962   -4.9563   -0.6477 C   0  0  0  0  0  0
   -5.5136   -4.0626   -1.9166 C   0  0  0  0  0  0
   -5.1748   -4.6840   -3.3478 C   0  0  0  0  0  0
   -5.1194   -3.8502   -4.6881 C   0  0  0  0  0  0
   -6.3605   -3.0309   -5.1307 C   0  0  0  0  0  0
   -6.1334   -1.4915   -5.3911 C   0  0  0  0  0  0
   -5.8043   -1.0878   -6.8337 C   0  0  0  0  0  0
   -6.9496   -1.1106   -7.8853 C   0  0  0  0  0  0
   -7.6938    0.2013   -8.2735 C   0  0  0  0  0  0
   -8.2968    1.0024   -7.1280 C   0  0  0  0  0  0
   -6.8438    1.0556   -9.1244 N   0  0  0  0  0  0
   -6.3152   -1.5588   -9.1103 O   0  0  0  0  0  0
   -7.3158   -0.7953   -4.9825 O   0  0  0  0  0  0
   -6.5586   -5.6074   -0.4265 O   0  0  0  0  0  0
   -3.1350   -9.3035    2.2801 O   0  0  0  0  0  0
   -3.4656   -9.1183    3.5845 C   0  0  0  0  0  0
   -4.5882   -9.1404    4.0523 O   0  0  0  0  0  0
   -2.1981   -8.9802    4.3819 C   0  0  0  0  0  0
   -2.1207   -9.9814    5.5455 C   0  0  0  0  0  0
   -3.1575   -9.6942    6.6392 C   0  0  0  0  0  0
   -2.7913   -8.4572    7.4261 C   0  0  0  0  0  0
   -3.4961   -7.9823    8.3101 O   0  0  0  0  0  0
   -1.6143   -7.9241    7.0664 O   0  0  0  0  0  0
   -2.3759  -11.3642    4.9300 C   0  0  0  0  0  0
   -1.4854  -12.1711    4.7104 O   0  0  0  0  0  0
   -3.6551  -11.5975    4.6055 O   0  0  0  0  0  0
   -0.6042  -10.6848    1.4648 O   0  0  0  0  0  0
    0.2295  -10.4231    2.5393 C   0  0  0  0  0  0
    0.3911   -9.3191    3.0426 O   0  0  0  0  0  0
    0.9436  -11.6837    3.0447 C   0  0  0  0  0  0
    2.2712  -11.4421    3.8279 C   0  0  0  0  0  0
    2.8407  -12.6042    4.6619 C   0  0  0  0  0  0
    2.4186  -12.5547    6.1020 C   0  0  0  0  0  0
    1.6029  -13.2963    6.6323 O   0  0  0  0  0  0
    3.0560  -11.5959    6.7910 O   0  0  0  0  0  0
    3.4214  -10.8886    2.9777 C   0  0  0  0  0  0
    4.5911  -11.0408    3.2699 O   0  0  0  0  0  0
    3.0555  -10.3071    1.8161 O   0  0  0  0  0  0
   -6.7424    1.9694   -8.6847 H   0  0  0  0  0  0
   -7.3378    1.2383  -10.0008 H   0  0  0  0  0  0
   -7.0588   -1.7180   -9.7292 H   0  0  0  0  0  0
   -7.0727    0.1282   -4.7866 H   0  0  0  0  0  0
   -7.2369   -4.9197   -0.3193 H   0  0  0  0  0  0
   -1.4618   -7.0084    7.3692 H   0  0  0  0  0  0
   -4.2875  -10.8966    4.9011 H   0  0  0  0  0  0
    2.5932  -11.5128    7.6513 H   0  0  0  0  0  0
    3.7931   -9.9397    1.2801 H   0  0  0  0  0  0
  1  2  1  0  0  0
  2  3  1  0  0  0
  3  4  1  0  0  0
  4  5  1  0  0  0
  5  6  1  0  0  0
  5  7  1  0  0  0
  7  8  1  0  0  0
  7 39  1  0  0  0
  8  9  1  0  0  0
  8 27  1  0  0  0
  9 10  1  0  0  0
 10 11  1  0  0  0
 10 12  1  0  0  0
 12 13  1  0  0  0
 13 14  1  0  0  0
 13 26  1  0  0  0
 14 15  1  0  0  0
 15 16  1  0  0  0
 16 17  1  0  0  0
 17 18  1  0  0  0
 18 19  1  0  0  0
 18 25  1  0  0  0
 19 20  1  0  0  0
 20 21  1  0  0  0
 20 24  1  0  0  0
 21 22  1  0  0  0
 21 23  1  0  0  0
 23 51  1  0  0  0
 23 52  1  0  0  0
 24 53  1  0  0  0
 25 54  1  0  0  0
 26 55  1  0  0  0
 27 28  1  0  0  0
 28 29  2  0  0  0
 28 30  1  0  0  0
 30 31  1  0  0  0
 31 32  1  0  0  0
 31 36  1  0  0  0
 32 33  1  0  0  0
 33 34  2  0  0  0
 33 35  1  0  0  0
 35 56  1  0  0  0
 36 37  2  0  0  0
 36 38  1  0  0  0
 38 57  1  0  0  0
 39 40  1  0  0  0
 40 41  2  0  0  0
 40 42  1  0  0  0
 42 43  1  0  0  0
 43 44  1  0  0  0
 43 48  1  0  0  0
 44 45  1  0  0  0
 45 46  2  0  0  0
 45 47  1  0  0  0
 47 58  1  0  0  0
 48 49  2  0  0  0
 48 50  1  0  0  0
 50 59  1  0  0  0
M  END
>  <AUTHOR>
    GENERATED BY OPEN BABEL 2.4.1

>  <CHROM.1>
71.16181782,154.85167466,-75.94272115,137.95747672,-59.59531915,174.84040547
79.12175937,142.63052927,97.92521322,-117.82283053,-174.10477530,27.51713853
172.11611605,-169.83250925,-56.52085355,124.40878914,92.68653974,73.91542131
156.82260233,98.54270651,-54.21822763,170.75630130,-123.20719737,146.54830976
-125.16058576,-67.82273397,-72.06928852,102.97002065,176.23292001,163.89865617
-6.95998812,7.48665142,156.80676340,164.60898204,-94.50042597,-155.44376901
106.94092341,168.51154820,179.01510069,-2.45831343,-7.78226961,0.57823383
-2.14483922,-0.65731906,1.90613561

>  <COMPND>
    UNNAMED

>  <MASTER>
        0    0    0    0    0    0    0    0  109    0  109    0

>  <Name>
FB1.pdb

>  <RI>
0

>  <Rbt.Current_Directory>
/home/fc/tossine/F10/p3/0_clust01

>  <Rbt.Executable>
rbdock/0.1.0

>  <Rbt.Library>
librxdock.so/0.1.0

>  <Rbt.Parameter_File>
/cluster/rxdock/data/scripts/dock.prm

>  <Rbt.Receptor>
rx_3.prm

>  <SCORE>
30.9319

>  <SCORE.INTER>
-0.503309

>  <SCORE.INTER.CONST>
1

>  <SCORE.INTER.POLAR>
-2.90416

>  <SCORE.INTER.REPUL>
0.159353

>  <SCORE.INTER.ROT>
32

>  <SCORE.INTER.VDW>
-28.8259

>  <SCORE.INTER.norm>
-0.0100662

>  <SCORE.INTRA>
27.615

>  <SCORE.INTRA.DIHEDRAL>
30.9922

>  <SCORE.INTRA.DIHEDRAL.0>
47.3121

>  <SCORE.INTRA.POLAR>
1.47808

>  <SCORE.INTRA.POLAR.0>
-1.47808

>  <SCORE.INTRA.REPUL>
0

>  <SCORE.INTRA.REPUL.0>
0

>  <SCORE.INTRA.VDW>
7.09344

>  <SCORE.INTRA.VDW.0>
-2.78316

>  <SCORE.INTRA.norm>
0.5523

>  <SCORE.RESTR>
3.82017

>  <SCORE.RESTR.CAVITY>
3.82017

>  <SCORE.RESTR.norm>
0.0764034

>  <SCORE.SYSTEM>
0

>  <SCORE.SYSTEM.CONST>
0

>  <SCORE.SYSTEM.DIHEDRAL>
0

>  <SCORE.SYSTEM.norm>
0

>  <SCORE.heavy>
50

>  <SCORE.norm>
0.618637

$$$$
