FB1.pdb
  RxDock  10062016403D
librxdock.so/0.1.0
 59 58  0  0  0  0  0  0  0  0999 V2000
   -8.0653   -2.8345  -15.3069 C   0  0  0  0  0  0
   -8.7715   -1.4818  -15.3592 C   0  0  0  0  0  0
   -8.1531   -0.5573  -16.4208 C   0  0  0  0  0  0
   -7.4100    0.6622  -15.8205 C   0  0  0  0  0  0
   -6.1542    0.3086  -14.9495 C   0  0  0  0  0  0
   -5.3501    1.6069  -14.7076 C   0  0  0  0  0  0
   -6.5151   -0.3996  -13.5762 C   0  0  0  0  0  0
   -5.8411   -1.8256  -13.2960 C   0  0  0  0  0  0
   -4.3869   -2.0476  -12.6926 C   0  0  0  0  0  0
   -3.1770   -2.1638  -13.8080 C   0  0  0  0  0  0
   -3.7725   -2.6778  -15.1177 C   0  0  0  0  0  0
   -2.3458   -0.8307  -14.0851 C   0  0  0  0  0  0
   -0.9340   -0.4778  -13.3775 C   0  0  0  0  0  0
    0.0212   -1.5834  -12.8106 C   0  0  0  0  0  0
    1.4418   -1.1351  -12.2361 C   0  0  0  0  0  0
    1.6500    0.0305  -11.1908 C   0  0  0  0  0  0
    1.2349   -0.1859   -9.7116 C   0  0  0  0  0  0
    1.7986   -1.4775   -9.0023 C   0  0  0  0  0  0
    3.1645   -1.9782   -9.4883 C   0  0  0  0  0  0
    3.2039   -3.2150  -10.4302 C   0  0  0  0  0  0
    4.5628   -3.8628  -10.8293 C   0  0  0  0  0  0
    5.6631   -3.8313   -9.7777 C   0  0  0  0  0  0
    4.3620   -5.2316  -11.3417 N   0  0  0  0  0  0
    2.4922   -4.2511   -9.7064 O   0  0  0  0  0  0
    1.8861   -1.2082   -7.5989 O   0  0  0  0  0  0
   -0.1695    0.1940  -14.3928 O   0  0  0  0  0  0
   -6.7237   -2.5176  -12.3715 O   0  0  0  0  0  0
   -6.6153   -3.8703  -12.3107 C   0  0  0  0  0  0
   -6.2198   -4.6009  -13.1990 O   0  0  0  0  0  0
   -6.9712   -4.3142  -10.9187 C   0  0  0  0  0  0
   -5.7321   -4.5777  -10.0482 C   0  0  0  0  0  0
   -6.0603   -5.3860   -8.7863 C   0  0  0  0  0  0
   -4.8996   -5.3813   -7.8188 C   0  0  0  0  0  0
   -3.9825   -6.1945   -7.8557 O   0  0  0  0  0  0
   -4.9652   -4.3968   -6.9103 O   0  0  0  0  0  0
   -4.7532   -5.3610  -10.9338 C   0  0  0  0  0  0
   -3.7242   -4.8771  -11.3804 O   0  0  0  0  0  0
   -5.1447   -6.6103  -11.2202 O   0  0  0  0  0  0
   -6.3422    0.5295  -12.4330 O   0  0  0  0  0  0
   -6.9600    0.2198  -11.2328 C   0  0  0  0  0  0
   -6.8719   -0.8597  -10.6625 O   0  0  0  0  0  0
   -7.7817    1.3916  -10.6797 C   0  0  0  0  0  0
   -6.9946    2.7174  -10.4401 C   0  0  0  0  0  0
   -7.6597    4.0399  -10.8630 C   0  0  0  0  0  0
   -6.7172    4.9708  -11.5698 C   0  0  0  0  0  0
   -6.8092    5.3297  -12.7357 O   0  0  0  0  0  0
   -5.7323    5.4083  -10.7705 O   0  0  0  0  0  0
   -6.4840    2.9055   -9.0062 C   0  0  0  0  0  0
   -6.1576    3.9868   -8.5580 O   0  0  0  0  0  0
   -6.5196    1.8027   -8.2291 O   0  0  0  0  0  0
    5.2613   -5.6166  -11.6271 H   0  0  0  0  0  0
    3.8121   -5.1808  -12.2022 H   0  0  0  0  0  0
    3.0226   -4.3932   -8.8941 H   0  0  0  0  0  0
    1.5939   -2.0041   -7.1176 H   0  0  0  0  0  0
    0.1483    1.0347  -14.0231 H   0  0  0  0  0  0
   -4.3803   -4.5049   -6.1359 H   0  0  0  0  0  0
   -5.9747   -6.8948  -10.7631 H   0  0  0  0  0  0
   -6.0392    5.2773   -9.8485 H   0  0  0  0  0  0
   -6.2867    1.9468   -7.2851 H   0  0  0  0  0  0
  1  2  1  0  0  0
  2  3  1  0  0  0
  3  4  1  0  0  0
  4  5  1  0  0  0
  5  6  1  0  0  0
  5  7  1  0  0  0
  7  8  1  0  0  0
  7 39  1  0  0  0
  8  9  1  0  0  0
  8 27  1  0  0  0
  9 10  1  0  0  0
 10 11  1  0  0  0
 10 12  1  0  0  0
 12 13  1  0  0  0
 13 14  1  0  0  0
 13 26  1  0  0  0
 14 15  1  0  0  0
 15 16  1  0  0  0
 16 17  1  0  0  0
 17 18  1  0  0  0
 18 19  1  0  0  0
 18 25  1  0  0  0
 19 20  1  0  0  0
 20 21  1  0  0  0
 20 24  1  0  0  0
 21 22  1  0  0  0
 21 23  1  0  0  0
 23 51  1  0  0  0
 23 52  1  0  0  0
 24 53  1  0  0  0
 25 54  1  0  0  0
 26 55  1  0  0  0
 27 28  1  0  0  0
 28 29  2  0  0  0
 28 30  1  0  0  0
 30 31  1  0  0  0
 31 32  1  0  0  0
 31 36  1  0  0  0
 32 33  1  0  0  0
 33 34  2  0  0  0
 33 35  1  0  0  0
 35 56  1  0  0  0
 36 37  2  0  0  0
 36 38  1  0  0  0
 38 57  1  0  0  0
 39 40  1  0  0  0
 40 41  2  0  0  0
 40 42  1  0  0  0
 42 43  1  0  0  0
 43 44  1  0  0  0
 43 48  1  0  0  0
 44 45  1  0  0  0
 45 46  2  0  0  0
 45 47  1  0  0  0
 47 58  1  0  0  0
 48 49  2  0  0  0
 48 50  1  0  0  0
 50 59  1  0  0  0
M  END
>  <AUTHOR>
    GENERATED BY OPEN BABEL 2.4.1

>  <CHROM.1>
-111.67715553,63.96366022,166.96533661,123.71999375,83.86445996,161.87575259
-90.69405529,159.43310096,-26.37377156,96.30662309,24.59278891,175.24191033
127.60211645,50.00618297,72.90171282,51.93625347,30.21153083,-103.01990701
139.47222909,-173.25602883,33.57093500,-62.20664937,177.88574315,-26.20860675
-99.12595547,-164.15344346,-168.14128583,108.38704599,-87.42308760,164.05011117
-4.94681523,50.95444548,-57.54415810,137.30002061,-136.30701716,-161.09451879
115.20746845,-20.01580197,-173.51445900,-3.69029472,-1.33431492,-11.51924033
2.70827521,-0.20503567,-0.05908505

>  <COMPND>
    UNNAMED

>  <MASTER>
        0    0    0    0    0    0    0    0  109    0  109    0

>  <Name>
FB1.pdb

>  <RI>
0

>  <Rbt.Current_Directory>
/home/fc/tossine/F10/p3/0_clust01

>  <Rbt.Executable>
rbdock/0.1.0

>  <Rbt.Library>
librxdock.so/0.1.0

>  <Rbt.Parameter_File>
/cluster/rxdock/data/scripts/dock.prm

>  <Rbt.Receptor>
rx_1.prm

>  <SCORE>
111.605

>  <SCORE.INTER>
72.9931

>  <SCORE.INTER.CONST>
1

>  <SCORE.INTER.POLAR>
-1.90955

>  <SCORE.INTER.REPUL>
1.13112

>  <SCORE.INTER.ROT>
32

>  <SCORE.INTER.VDW>
36.43

>  <SCORE.INTER.norm>
1.45986

>  <SCORE.INTRA>
32.2366

>  <SCORE.INTRA.DIHEDRAL>
53.2166

>  <SCORE.INTRA.DIHEDRAL.0>
47.3121

>  <SCORE.INTRA.POLAR>
1.03877

>  <SCORE.INTRA.POLAR.0>
-1.47808

>  <SCORE.INTRA.REPUL>
0

>  <SCORE.INTRA.REPUL.0>
0

>  <SCORE.INTRA.VDW>
2.09651

>  <SCORE.INTRA.VDW.0>
-2.78316

>  <SCORE.INTRA.norm>
0.644733

>  <SCORE.RESTR>
6.37567

>  <SCORE.RESTR.CAVITY>
6.37567

>  <SCORE.RESTR.norm>
0.127513

>  <SCORE.SYSTEM>
0

>  <SCORE.SYSTEM.CONST>
0

>  <SCORE.SYSTEM.DIHEDRAL>
0

>  <SCORE.SYSTEM.norm>
0

>  <SCORE.heavy>
50

>  <SCORE.norm>
2.23211

$$$$
