FB1.pdb
  RxDock  10062017203D
librxdock.so/0.1.0
 59 58  0  0  0  0  0  0  0  0999 V2000
    0.7692    1.2818   -9.8590 C   0  0  0  0  0  0
    2.1932    1.0959   -9.3403 C   0  0  0  0  0  0
    2.2219    0.8892   -7.8170 C   0  0  0  0  0  0
    1.8294   -0.5445   -7.3808 C   0  0  0  0  0  0
    2.9541   -1.3386   -6.6291 C   0  0  0  0  0  0
    2.2977   -2.5269   -5.8891 C   0  0  0  0  0  0
    4.1211   -1.8379   -7.5813 C   0  0  0  0  0  0
    3.6934   -2.4076   -9.0161 C   0  0  0  0  0  0
    4.1709   -1.8189  -10.4138 C   0  0  0  0  0  0
    3.0575   -1.9088  -11.6277 C   0  0  0  0  0  0
    2.5327   -3.3418  -11.6995 C   0  0  0  0  0  0
    1.8304   -0.8938  -11.5329 C   0  0  0  0  0  0
    0.8183   -0.5767  -12.7550 C   0  0  0  0  0  0
   -0.7385   -0.5670  -12.5756 C   0  0  0  0  0  0
   -1.6519   -0.6906  -13.8793 C   0  0  0  0  0  0
   -2.8684   -1.6879  -14.0208 C   0  0  0  0  0  0
   -4.3069   -1.1240  -14.1632 C   0  0  0  0  0  0
   -5.4646   -2.1808  -14.3415 C   0  0  0  0  0  0
   -5.6911   -3.1445  -13.1700 C   0  0  0  0  0  0
   -5.5178   -4.6687  -13.4249 C   0  0  0  0  0  0
   -4.2478   -5.2113  -14.1448 C   0  0  0  0  0  0
   -3.8428   -4.5028  -15.4298 C   0  0  0  0  0  0
   -3.1103   -5.2981  -13.2094 N   0  0  0  0  0  0
   -5.4810   -5.2610  -12.1014 O   0  0  0  0  0  0
   -6.6813   -1.4664  -14.5845 O   0  0  0  0  0  0
    1.1556    0.7552  -13.1780 O   0  0  0  0  0  0
    4.1210   -3.7965   -9.0457 O   0  0  0  0  0  0
    3.1468   -4.7403   -9.1187 C   0  0  0  0  0  0
    2.0052   -4.6288   -8.7140 O   0  0  0  0  0  0
    3.6842   -5.9211   -9.8793 C   0  0  0  0  0  0
    3.3704   -7.2591   -9.1910 C   0  0  0  0  0  0
    2.8936   -8.3317  -10.1787 C   0  0  0  0  0  0
    4.0450   -8.8712  -10.9952 C   0  0  0  0  0  0
    4.2983  -10.0661  -11.1038 O   0  0  0  0  0  0
    4.7684   -7.9148  -11.5959 O   0  0  0  0  0  0
    4.6773   -7.7056   -8.5211 C   0  0  0  0  0  0
    4.7405   -8.0637   -7.3549 O   0  0  0  0  0  0
    5.7585   -7.6237   -9.3088 O   0  0  0  0  0  0
    5.1977   -0.8230   -7.6863 O   0  0  0  0  0  0
    5.4172    0.0188   -6.6088 C   0  0  0  0  0  0
    4.5494    0.3979   -5.8332 O   0  0  0  0  0  0
    6.8887    0.4354   -6.4836 C   0  0  0  0  0  0
    7.9366   -0.6655   -6.8363 C   0  0  0  0  0  0
    7.9542   -1.2130   -8.2752 C   0  0  0  0  0  0
    7.3237   -2.5705   -8.3941 C   0  0  0  0  0  0
    6.6106   -3.1020   -7.5541 O   0  0  0  0  0  0
    7.6082   -3.1680   -9.5612 O   0  0  0  0  0  0
    9.3828   -0.3102   -6.4692 C   0  0  0  0  0  0
   10.0298    0.5258   -7.0685 O   0  0  0  0  0  0
    9.8639   -0.9123   -5.3614 O   0  0  0  0  0  0
   -2.7804   -4.3577  -12.9964 H   0  0  0  0  0  0
   -2.3276   -5.7497  -13.6880 H   0  0  0  0  0  0
   -5.7252   -6.1997  -12.2443 H   0  0  0  0  0  0
   -6.7907   -1.3710  -15.5485 H   0  0  0  0  0  0
    1.8300    0.6878  -13.8746 H   0  0  0  0  0  0
    5.2630   -8.2018  -12.3874 H   0  0  0  0  0  0
    5.5626   -7.3977  -10.2518 H   0  0  0  0  0  0
    8.3472   -3.7883   -9.3869 H   0  0  0  0  0  0
    9.3074   -1.6392   -5.0035 H   0  0  0  0  0  0
  1  2  1  0  0  0
  2  3  1  0  0  0
  3  4  1  0  0  0
  4  5  1  0  0  0
  5  6  1  0  0  0
  5  7  1  0  0  0
  7  8  1  0  0  0
  7 39  1  0  0  0
  8  9  1  0  0  0
  8 27  1  0  0  0
  9 10  1  0  0  0
 10 11  1  0  0  0
 10 12  1  0  0  0
 12 13  1  0  0  0
 13 14  1  0  0  0
 13 26  1  0  0  0
 14 15  1  0  0  0
 15 16  1  0  0  0
 16 17  1  0  0  0
 17 18  1  0  0  0
 18 19  1  0  0  0
 18 25  1  0  0  0
 19 20  1  0  0  0
 20 21  1  0  0  0
 20 24  1  0  0  0
 21 22  1  0  0  0
 21 23  1  0  0  0
 23 51  1  0  0  0
 23 52  1  0  0  0
 24 53  1  0  0  0
 25 54  1  0  0  0
 26 55  1  0  0  0
 27 28  1  0  0  0
 28 29  2  0  0  0
 28 30  1  0  0  0
 30 31  1  0  0  0
 31 32  1  0  0  0
 31 36  1  0  0  0
 32 33  1  0  0  0
 33 34  2  0  0  0
 33 35  1  0  0  0
 35 56  1  0  0  0
 36 37  2  0  0  0
 36 38  1  0  0  0
 38 57  1  0  0  0
 39 40  1  0  0  0
 40 41  2  0  0  0
 40 42  1  0  0  0
 42 43  1  0  0  0
 43 44  1  0  0  0
 43 48  1  0  0  0
 44 45  1  0  0  0
 45 46  2  0  0  0
 45 47  1  0  0  0
 47 58  1  0  0  0
 48 49  2  0  0  0
 48 50  1  0  0  0
 50 59  1  0  0  0
M  END
>  <AUTHOR>
    GENERATED BY OPEN BABEL 2.4.1

>  <CHROM.1>
78.10402130,117.82204705,162.53644176,-40.52233884,120.59936658,29.57388243
-146.08500279,114.87159043,-50.71118178,165.66620217,132.72962824,-161.56774560
90.88549131,131.69613992,114.64183876,178.29762387,63.34920540,-119.04950293
92.04774280,49.19484117,-48.18197324,158.45213834,-72.12625589,-27.17669548
133.74892450,136.27913732,74.84719656,130.40037755,127.64615696,-156.17908835
-7.42455641,-31.27506884,-37.21543446,62.61802903,-103.53639400,-71.50051410
15.16471513,98.55336778,11.14367855,2.40832042,-2.93284455,-10.03566669,2.98106489
0.50839549,-2.98189808

>  <COMPND>
    UNNAMED

>  <MASTER>
        0    0    0    0    0    0    0    0  109    0  109    0

>  <Name>
FB1.pdb

>  <RI>
0

>  <Rbt.Current_Directory>
/home/fc/tossine/F10/p3/0_clust01

>  <Rbt.Executable>
rbdock/0.1.0

>  <Rbt.Library>
librxdock.so/0.1.0

>  <Rbt.Parameter_File>
/cluster/rxdock/data/scripts/dock.prm

>  <Rbt.Receptor>
rx_2.prm

>  <SCORE>
125.433

>  <SCORE.INTER>
76.534

>  <SCORE.INTER.CONST>
1

>  <SCORE.INTER.POLAR>
-3.50776

>  <SCORE.INTER.REPUL>
1.56605

>  <SCORE.INTER.ROT>
32

>  <SCORE.INTER.VDW>
43.2301

>  <SCORE.INTER.norm>
1.53068

>  <SCORE.INTRA>
44.2585

>  <SCORE.INTRA.DIHEDRAL>
76.8971

>  <SCORE.INTRA.DIHEDRAL.0>
47.3121

>  <SCORE.INTRA.POLAR>
0.623564

>  <SCORE.INTRA.POLAR.0>
-1.47808

>  <SCORE.INTRA.REPUL>
0

>  <SCORE.INTRA.REPUL.0>
0

>  <SCORE.INTRA.VDW>
3.68985

>  <SCORE.INTRA.VDW.0>
-2.78316

>  <SCORE.INTRA.norm>
0.885171

>  <SCORE.RESTR>
4.64073

>  <SCORE.RESTR.CAVITY>
4.64073

>  <SCORE.RESTR.norm>
0.0928147

>  <SCORE.SYSTEM>
0

>  <SCORE.SYSTEM.CONST>
0

>  <SCORE.SYSTEM.DIHEDRAL>
0

>  <SCORE.SYSTEM.norm>
0

>  <SCORE.heavy>
50

>  <SCORE.norm>
2.50866

$$$$
