FB1.pdb
  RxDock  10062018253D
librxdock.so/0.1.0
 59 58  0  0  0  0  0  0  0  0999 V2000
    7.8447   -2.1985   -9.2493 C   0  0  0  0  0  0
    7.1250   -3.4267   -8.6970 C   0  0  0  0  0  0
    7.9265   -4.0969   -7.5689 C   0  0  0  0  0  0
    7.2640   -3.9603   -6.1753 C   0  0  0  0  0  0
    5.7478   -4.3586   -6.1217 C   0  0  0  0  0  0
    5.3642   -4.6118   -4.6454 C   0  0  0  0  0  0
    4.7866   -3.2819   -6.7812 C   0  0  0  0  0  0
    4.2574   -3.5914   -8.2612 C   0  0  0  0  0  0
    3.1028   -4.6230   -8.6231 C   0  0  0  0  0  0
    3.0289   -5.0610  -10.2118 C   0  0  0  0  0  0
    4.3715   -5.6720  -10.6095 C   0  0  0  0  0  0
    1.8486   -6.0565  -10.6124 C   0  0  0  0  0  0
    1.6200   -7.5106   -9.9401 C   0  0  0  0  0  0
    0.3810   -8.4080  -10.2799 C   0  0  0  0  0  0
   -1.0176   -8.0595   -9.5931 C   0  0  0  0  0  0
   -1.6185   -8.8369   -8.3565 C   0  0  0  0  0  0
   -1.0068   -8.6211   -6.9470 C   0  0  0  0  0  0
   -1.8483   -9.1543   -5.7235 C   0  0  0  0  0  0
   -1.3803  -10.4759   -5.1015 C   0  0  0  0  0  0
    0.1424  -10.7911   -5.0988 C   0  0  0  0  0  0
    1.1734   -9.7109   -4.6566 C   0  0  0  0  0  0
    2.1983  -10.1386   -3.6153 C   0  0  0  0  0  0
    1.8336   -9.1039   -5.8279 N   0  0  0  0  0  0
    0.2930  -11.8688   -4.1397 O   0  0  0  0  0  0
   -1.8390   -8.1452   -4.7079 O   0  0  0  0  0  0
    2.7643   -8.2851  -10.3367 O   0  0  0  0  0  0
    3.7894   -2.3246   -8.7985 O   0  0  0  0  0  0
    4.6036   -1.2488   -8.6400 C   0  0  0  0  0  0
    5.6197   -1.2077   -7.9726 O   0  0  0  0  0  0
    4.0955   -0.1346   -9.5128 C   0  0  0  0  0  0
    2.6407   -0.3508   -9.9590 C   0  0  0  0  0  0
    2.0408    0.8902  -10.6323 C   0  0  0  0  0  0
    0.5419    0.9395  -10.4480 C   0  0  0  0  0  0
   -0.0910    1.9811  -10.3130 O   0  0  0  0  0  0
   -0.0365   -0.2706  -10.4474 O   0  0  0  0  0  0
    2.6732   -1.5222  -10.9504 C   0  0  0  0  0  0
    3.2318   -1.4626  -12.0352 O   0  0  0  0  0  0
    1.9937   -2.6054  -10.5491 O   0  0  0  0  0  0
    3.6810   -2.9169   -5.8622 O   0  0  0  0  0  0
    3.2048   -1.6167   -5.8878 C   0  0  0  0  0  0
    2.4704   -1.1610   -6.7546 O   0  0  0  0  0  0
    3.7013   -0.7896   -4.6946 C   0  0  0  0  0  0
    2.5904   -0.1656   -3.7939 C   0  0  0  0  0  0
    2.0001   -1.0336   -2.6676 C   0  0  0  0  0  0
    2.1888   -2.5048   -2.9007 C   0  0  0  0  0  0
    2.7375   -3.2841   -2.1337 O   0  0  0  0  0  0
    1.6635   -2.9112   -4.0665 O   0  0  0  0  0  0
    2.9566    1.1898   -3.1766 C   0  0  0  0  0  0
    3.1439    1.3440   -1.9859 O   0  0  0  0  0  0
    3.1651    2.1904   -4.0578 O   0  0  0  0  0  0
    2.4215   -9.8030   -6.2796 H   0  0  0  0  0  0
    2.4831   -8.3851   -5.5007 H   0  0  0  0  0  0
   -0.2232  -12.6109   -4.5194 H   0  0  0  0  0  0
   -2.5383   -7.4983   -4.9154 H   0  0  0  0  0  0
    2.7579   -8.3563  -11.3060 H   0  0  0  0  0  0
    0.5683   -1.0213  -10.2924 H   0  0  0  0  0  0
    1.8749   -3.2967  -11.2468 H   0  0  0  0  0  0
    1.7589   -3.8867   -4.0932 H   0  0  0  0  0  0
    2.7247    2.0804   -4.9297 H   0  0  0  0  0  0
  1  2  1  0  0  0
  2  3  1  0  0  0
  3  4  1  0  0  0
  4  5  1  0  0  0
  5  6  1  0  0  0
  5  7  1  0  0  0
  7  8  1  0  0  0
  7 39  1  0  0  0
  8  9  1  0  0  0
  8 27  1  0  0  0
  9 10  1  0  0  0
 10 11  1  0  0  0
 10 12  1  0  0  0
 12 13  1  0  0  0
 13 14  1  0  0  0
 13 26  1  0  0  0
 14 15  1  0  0  0
 15 16  1  0  0  0
 16 17  1  0  0  0
 17 18  1  0  0  0
 18 19  1  0  0  0
 18 25  1  0  0  0
 19 20  1  0  0  0
 20 21  1  0  0  0
 20 24  1  0  0  0
 21 22  1  0  0  0
 21 23  1  0  0  0
 23 51  1  0  0  0
 23 52  1  0  0  0
 24 53  1  0  0  0
 25 54  1  0  0  0
 26 55  1  0  0  0
 27 28  1  0  0  0
 28 29  2  0  0  0
 28 30  1  0  0  0
 30 31  1  0  0  0
 31 32  1  0  0  0
 31 36  1  0  0  0
 32 33  1  0  0  0
 33 34  2  0  0  0
 33 35  1  0  0  0
 35 56  1  0  0  0
 36 37  2  0  0  0
 36 38  1  0  0  0
 38 57  1  0  0  0
 39 40  1  0  0  0
 40 41  2  0  0  0
 40 42  1  0  0  0
 42 43  1  0  0  0
 43 44  1  0  0  0
 43 48  1  0  0  0
 44 45  1  0  0  0
 45 46  2  0  0  0
 45 47  1  0  0  0
 47 58  1  0  0  0
 48 49  2  0  0  0
 48 50  1  0  0  0
 50 59  1  0  0  0
M  END
>  <AUTHOR>
    GENERATED BY OPEN BABEL 2.4.1

>  <CHROM.1>
111.22183028,49.84293881,161.88294777,101.00253245,76.80220460,146.14889691
-163.96279125,46.78645829,58.08267724,-57.21167292,174.90609681,-78.51624690
-62.29731792,-101.57236899,73.73511025,166.25822763,102.29166248,32.94804267
83.45579987,46.55156189,129.56088302,62.89441360,-67.58546535,-8.26043990
17.74254226,169.69870305,-152.00963879,-65.66719825,145.60509019,17.72662002
169.53008220,76.35690436,-122.23767902,85.45548024,-21.80864831,-111.57263387
123.97985270,-174.85779161,23.97736216,2.56041469,-3.99565114,-7.19392357
0.15061898,-1.22481256,-1.54993591

>  <COMPND>
    UNNAMED

>  <MASTER>
        0    0    0    0    0    0    0    0  109    0  109    0

>  <Name>
FB1.pdb

>  <RI>
0

>  <Rbt.Current_Directory>
/home/fc/tossine/F10/p3/0_clust01

>  <Rbt.Executable>
rbdock/0.1.0

>  <Rbt.Library>
librxdock.so/0.1.0

>  <Rbt.Parameter_File>
/cluster/rxdock/data/scripts/dock.prm

>  <Rbt.Receptor>
rx_4.prm

>  <SCORE>
75.7311

>  <SCORE.INTER>
22.0909

>  <SCORE.INTER.CONST>
1

>  <SCORE.INTER.POLAR>
-1.9906

>  <SCORE.INTER.REPUL>
3.00648

>  <SCORE.INTER.ROT>
32

>  <SCORE.INTER.VDW>
-23.5735

>  <SCORE.INTER.norm>
0.441818

>  <SCORE.INTRA>
36.3224

>  <SCORE.INTRA.DIHEDRAL>
45.6064

>  <SCORE.INTRA.DIHEDRAL.0>
47.3121

>  <SCORE.INTRA.POLAR>
0.989512

>  <SCORE.INTRA.POLAR.0>
-1.47808

>  <SCORE.INTRA.REPUL>
0.0243402

>  <SCORE.INTRA.REPUL.0>
0

>  <SCORE.INTRA.VDW>
10.0331

>  <SCORE.INTRA.VDW.0>
-2.78316

>  <SCORE.INTRA.norm>
0.726447

>  <SCORE.RESTR>
17.3178

>  <SCORE.RESTR.CAVITY>
17.3178

>  <SCORE.RESTR.norm>
0.346356

>  <SCORE.SYSTEM>
0

>  <SCORE.SYSTEM.CONST>
0

>  <SCORE.SYSTEM.DIHEDRAL>
0

>  <SCORE.SYSTEM.norm>
0

>  <SCORE.heavy>
50

>  <SCORE.norm>
1.51462

$$$$
