FB1.pdb
  RxDock  10062015483D
librxdock.so/0.1.0
 59 58  0  0  0  0  0  0  0  0999 V2000
  -10.7005    1.3331   10.4046 C   0  0  0  0  0  0
  -11.5184    0.8214   11.5880 C   0  0  0  0  0  0
  -10.9172   -0.4627   12.1829 C   0  0  0  0  0  0
  -11.0921   -1.7051   11.2742 C   0  0  0  0  0  0
  -12.3390   -2.5970   11.6058 C   0  0  0  0  0  0
  -13.5934   -1.6931   11.6169 C   0  0  0  0  0  0
  -12.5278   -3.8173   10.6093 C   0  0  0  0  0  0
  -13.4376   -5.0344   11.1164 C   0  0  0  0  0  0
  -13.5435   -6.4544   10.4089 C   0  0  0  0  0  0
  -14.3377   -7.6108   11.2768 C   0  0  0  0  0  0
  -15.7728   -7.1419   11.5104 C   0  0  0  0  0  0
  -14.3495   -9.0771   10.6486 C   0  0  0  0  0  0
  -14.8732   -9.4211    9.1567 C   0  0  0  0  0  0
  -13.9991   -9.1692    7.8805 C   0  0  0  0  0  0
  -13.0119  -10.3275    7.3980 C   0  0  0  0  0  0
  -12.5970  -11.5678    8.2836 C   0  0  0  0  0  0
  -11.7835  -12.7248    7.6458 C   0  0  0  0  0  0
  -10.8868  -13.5792    8.6231 C   0  0  0  0  0  0
   -9.6336  -14.2180    8.0116 C   0  0  0  0  0  0
   -8.5753  -14.8312    8.9719 C   0  0  0  0  0  0
   -7.4291  -13.9510    9.5523 C   0  0  0  0  0  0
   -7.3563  -13.8475   11.0693 C   0  0  0  0  0  0
   -6.1250  -14.3470    8.9876 N   0  0  0  0  0  0
   -9.3360  -15.2669   10.1274 O   0  0  0  0  0  0
  -10.4841  -12.7336    9.7059 O   0  0  0  0  0  0
  -15.1199  -10.8373    9.1690 O   0  0  0  0  0  0
  -12.9947   -5.3375   12.4671 O   0  0  0  0  0  0
  -13.8216   -4.9774   13.4829 C   0  0  0  0  0  0
  -15.0288   -4.8452   13.4152 O   0  0  0  0  0  0
  -13.0077   -4.8658   14.7424 C   0  0  0  0  0  0
  -12.7848   -6.2254   15.4237 C   0  0  0  0  0  0
  -11.2984   -6.5432   15.6313 C   0  0  0  0  0  0
  -10.5371   -6.4643   14.3285 C   0  0  0  0  0  0
  -10.4328   -5.4384   13.6648 O   0  0  0  0  0  0
   -9.9804   -7.6287   13.9636 O   0  0  0  0  0  0
  -13.4980   -6.1394   16.7802 C   0  0  0  0  0  0
  -14.4982   -6.7869   17.0501 O   0  0  0  0  0  0
  -12.9610   -5.2554   17.6323 O   0  0  0  0  0  0
  -12.9292   -3.3497    9.2602 O   0  0  0  0  0  0
  -12.5951   -4.1299    8.1658 C   0  0  0  0  0  0
  -11.9661   -5.1784    8.2241 O   0  0  0  0  0  0
  -13.1046   -3.5343    6.8467 C   0  0  0  0  0  0
  -13.0620   -1.9779    6.7451 C   0  0  0  0  0  0
  -12.8163   -1.3498    5.3611 C   0  0  0  0  0  0
  -12.0362   -2.2441    4.4412 C   0  0  0  0  0  0
  -10.9380   -1.9934    3.9641 O   0  0  0  0  0  0
  -12.6684   -3.4011    4.1923 O   0  0  0  0  0  0
  -14.2746   -1.2655    7.3570 C   0  0  0  0  0  0
  -14.2901   -0.8516    8.4994 O   0  0  0  0  0  0
  -15.2964   -1.0283    6.5080 O   0  0  0  0  0  0
   -6.1217  -14.1538    7.9870 H   0  0  0  0  0  0
   -6.0324  -15.3627    9.0601 H   0  0  0  0  0  0
   -9.9746  -15.9197    9.7705 H   0  0  0  0  0  0
  -10.1310  -13.2985   10.4178 H   0  0  0  0  0  0
  -16.0655  -10.9763    9.3450 H   0  0  0  0  0  0
  -10.1215   -8.3702   14.5831 H   0  0  0  0  0  0
  -12.1057   -4.8612   17.3292 H   0  0  0  0  0  0
  -12.1474   -3.8636    3.5024 H   0  0  0  0  0  0
  -16.0442   -0.5135    6.8847 H   0  0  0  0  0  0
  1  2  1  0  0  0
  2  3  1  0  0  0
  3  4  1  0  0  0
  4  5  1  0  0  0
  5  6  1  0  0  0
  5  7  1  0  0  0
  7  8  1  0  0  0
  7 39  1  0  0  0
  8  9  1  0  0  0
  8 27  1  0  0  0
  9 10  1  0  0  0
 10 11  1  0  0  0
 10 12  1  0  0  0
 12 13  1  0  0  0
 13 14  1  0  0  0
 13 26  1  0  0  0
 14 15  1  0  0  0
 15 16  1  0  0  0
 16 17  1  0  0  0
 17 18  1  0  0  0
 18 19  1  0  0  0
 18 25  1  0  0  0
 19 20  1  0  0  0
 20 21  1  0  0  0
 20 24  1  0  0  0
 21 22  1  0  0  0
 21 23  1  0  0  0
 23 51  1  0  0  0
 23 52  1  0  0  0
 24 53  1  0  0  0
 25 54  1  0  0  0
 26 55  1  0  0  0
 27 28  1  0  0  0
 28 29  2  0  0  0
 28 30  1  0  0  0
 30 31  1  0  0  0
 31 32  1  0  0  0
 31 36  1  0  0  0
 32 33  1  0  0  0
 33 34  2  0  0  0
 33 35  1  0  0  0
 35 56  1  0  0  0
 36 37  2  0  0  0
 36 38  1  0  0  0
 38 57  1  0  0  0
 39 40  1  0  0  0
 40 41  2  0  0  0
 40 42  1  0  0  0
 42 43  1  0  0  0
 43 44  1  0  0  0
 43 48  1  0  0  0
 44 45  1  0  0  0
 45 46  2  0  0  0
 45 47  1  0  0  0
 47 58  1  0  0  0
 48 49  2  0  0  0
 48 50  1  0  0  0
 50 59  1  0  0  0
M  END
>  <AUTHOR>
    GENERATED BY OPEN BABEL 2.4.1

>  <CHROM.1>
-71.30812601,-95.36083488,53.34818068,160.31373179,-168.12816560,152.72858609
169.62659412,107.28283690,61.16964072,-54.88395644,79.12093962,88.34119581
96.16779254,-14.93763400,171.91075516,154.33577406,-151.51137389,168.25373387
165.67473405,-88.21766400,120.80127130,59.91428147,64.98924570,26.05596711
-82.59610482,123.85394932,-55.02515418,111.70666538,62.09401625,-0.92232981
-7.87956632,-1.30697933,36.57062788,147.97273555,-27.07421644,93.92274890
-117.87931924,172.92276050,-175.68106336,-12.23347386,-6.45541311,10.33910673
-2.95009337,-1.31846473,1.75706200

>  <COMPND>
    UNNAMED

>  <MASTER>
        0    0    0    0    0    0    0    0  109    0  109    0

>  <Name>
FB1.pdb

>  <RI>
0

>  <Rbt.Current_Directory>
/home/fc/tossine/F10/p3/0_clust01

>  <Rbt.Executable>
rbdock/0.1.0

>  <Rbt.Library>
librxdock.so/0.1.0

>  <Rbt.Parameter_File>
/cluster/rxdock/data/scripts/dock.prm

>  <Rbt.Receptor>
rx_0.prm

>  <SCORE>
34.0229

>  <SCORE.INTER>
11.1576

>  <SCORE.INTER.CONST>
1

>  <SCORE.INTER.POLAR>
-0.707705

>  <SCORE.INTER.REPUL>
0.100044

>  <SCORE.INTER.ROT>
32

>  <SCORE.INTER.VDW>
-24.3364

>  <SCORE.INTER.norm>
0.223153

>  <SCORE.INTRA>
19.5101

>  <SCORE.INTRA.DIHEDRAL>
23.144

>  <SCORE.INTRA.DIHEDRAL.0>
47.3121

>  <SCORE.INTRA.POLAR>
1.14547

>  <SCORE.INTRA.POLAR.0>
-1.47808

>  <SCORE.INTRA.REPUL>
0

>  <SCORE.INTRA.REPUL.0>
0

>  <SCORE.INTRA.VDW>
4.0435

>  <SCORE.INTRA.VDW.0>
-2.78316

>  <SCORE.INTRA.norm>
0.390202

>  <SCORE.RESTR>
3.35516

>  <SCORE.RESTR.CAVITY>
3.35516

>  <SCORE.RESTR.norm>
0.0671032

>  <SCORE.SYSTEM>
0

>  <SCORE.SYSTEM.CONST>
0

>  <SCORE.SYSTEM.DIHEDRAL>
0

>  <SCORE.SYSTEM.norm>
0

>  <SCORE.heavy>
50

>  <SCORE.norm>
0.680458

$$$$
