FB1.pdb
  RxDock  10062018233D
librxdock.so/0.1.0
 59 58  0  0  0  0  0  0  0  0999 V2000
    1.5299    1.4355  -10.6376 C   0  0  0  0  0  0
    0.6941    0.1757  -10.4236 C   0  0  0  0  0  0
    0.9287   -0.4336   -9.0315 C   0  0  0  0  0  0
    2.3847   -0.9110   -8.8038 C   0  0  0  0  0  0
    2.8764   -2.0281   -9.7891 C   0  0  0  0  0  0
    3.4436   -1.3441  -11.0544 C   0  0  0  0  0  0
    3.9441   -3.0120   -9.1489 C   0  0  0  0  0  0
    4.2118   -2.8684   -7.5761 C   0  0  0  0  0  0
    4.4187   -4.0811   -6.5686 C   0  0  0  0  0  0
    5.1336   -5.4175   -7.2201 C   0  0  0  0  0  0
    6.6484   -5.2214   -7.1886 C   0  0  0  0  0  0
    4.7608   -6.8139   -6.5449 C   0  0  0  0  0  0
    4.3539   -6.9896   -4.9886 C   0  0  0  0  0  0
    4.9554   -8.1203   -4.0854 C   0  0  0  0  0  0
    4.2673   -9.5607   -4.1162 C   0  0  0  0  0  0
    2.9720   -9.9091   -4.9502 C   0  0  0  0  0  0
    1.7412   -8.9670   -4.8803 C   0  0  0  0  0  0
    0.4026   -9.5064   -5.5178 C   0  0  0  0  0  0
   -0.8416   -9.4645   -4.6220 C   0  0  0  0  0  0
   -2.2275   -9.7391   -5.2717 C   0  0  0  0  0  0
   -2.9990   -8.5999   -6.0015 C   0  0  0  0  0  0
   -4.5087   -8.7641   -6.1076 C   0  0  0  0  0  0
   -2.6502   -7.2828   -5.4358 N   0  0  0  0  0  0
   -1.9630  -10.7302   -6.2971 O   0  0  0  0  0  0
    0.1377   -8.7436   -6.7000 O   0  0  0  0  0  0
    4.7500   -5.7581   -4.3617 O   0  0  0  0  0  0
    5.4236   -2.0774   -7.4407 O   0  0  0  0  0  0
    5.3018   -0.7324   -7.5867 C   0  0  0  0  0  0
    5.1056   -0.1368   -8.6289 O   0  0  0  0  0  0
    5.3485   -0.0995   -6.2234 C   0  0  0  0  0  0
    3.9661    0.3705   -5.7432 C   0  0  0  0  0  0
    3.9485    0.7170   -4.2488 C   0  0  0  0  0  0
    2.8417   -0.0202   -3.5313 C   0  0  0  0  0  0
    2.4538   -1.1388   -3.8505 O   0  0  0  0  0  0
    2.3202    0.6671   -2.5044 O   0  0  0  0  0  0
    3.6316    1.6163   -6.5751 C   0  0  0  0  0  0
    4.2196    2.6797   -6.4498 O   0  0  0  0  0  0
    2.6039    1.4572   -7.4204 O   0  0  0  0  0  0
    3.6787   -4.4179   -9.5399 O   0  0  0  0  0  0
    3.0278   -4.6569  -10.7388 C   0  0  0  0  0  0
    2.4828   -3.7972  -11.4187 O   0  0  0  0  0  0
    3.0610   -6.1387  -11.1359 C   0  0  0  0  0  0
    1.9884   -7.0460  -10.4570 C   0  0  0  0  0  0
    0.7752   -7.4846  -11.2974 C   0  0  0  0  0  0
   -0.3850   -7.9394  -10.4598 C   0  0  0  0  0  0
   -0.7371   -7.4428   -9.3987 O   0  0  0  0  0  0
   -1.0419   -8.9717  -11.0104 O   0  0  0  0  0  0
    2.5511   -8.3037   -9.7833 C   0  0  0  0  0  0
    3.7336   -8.5838   -9.7908 O   0  0  0  0  0  0
    1.6587   -9.0342   -9.0825 O   0  0  0  0  0  0
   -2.9692   -6.5518   -6.0700 H   0  0  0  0  0  0
   -1.6318   -7.1929   -5.4211 H   0  0  0  0  0  0
   -1.8451  -11.5696   -5.8043 H   0  0  0  0  0  0
    0.8966   -8.8446   -7.3037 H   0  0  0  0  0  0
    5.7129   -5.7826   -4.2324 H   0  0  0  0  0  0
    1.5881    0.2231   -2.0349 H   0  0  0  0  0  0
    2.1919    2.3022   -7.7288 H   0  0  0  0  0  0
   -0.5868   -9.1769  -11.8543 H   0  0  0  0  0  0
    2.0231   -9.8360   -8.6460 H   0  0  0  0  0  0
  1  2  1  0  0  0
  2  3  1  0  0  0
  3  4  1  0  0  0
  4  5  1  0  0  0
  5  6  1  0  0  0
  5  7  1  0  0  0
  7  8  1  0  0  0
  7 39  1  0  0  0
  8  9  1  0  0  0
  8 27  1  0  0  0
  9 10  1  0  0  0
 10 11  1  0  0  0
 10 12  1  0  0  0
 12 13  1  0  0  0
 13 14  1  0  0  0
 13 26  1  0  0  0
 14 15  1  0  0  0
 15 16  1  0  0  0
 16 17  1  0  0  0
 17 18  1  0  0  0
 18 19  1  0  0  0
 18 25  1  0  0  0
 19 20  1  0  0  0
 20 21  1  0  0  0
 20 24  1  0  0  0
 21 22  1  0  0  0
 21 23  1  0  0  0
 23 51  1  0  0  0
 23 52  1  0  0  0
 24 53  1  0  0  0
 25 54  1  0  0  0
 26 55  1  0  0  0
 27 28  1  0  0  0
 28 29  2  0  0  0
 28 30  1  0  0  0
 30 31  1  0  0  0
 31 32  1  0  0  0
 31 36  1  0  0  0
 32 33  1  0  0  0
 33 34  2  0  0  0
 33 35  1  0  0  0
 35 56  1  0  0  0
 36 37  2  0  0  0
 36 38  1  0  0  0
 38 57  1  0  0  0
 39 40  1  0  0  0
 40 41  2  0  0  0
 40 42  1  0  0  0
 42 43  1  0  0  0
 43 44  1  0  0  0
 43 48  1  0  0  0
 44 45  1  0  0  0
 45 46  2  0  0  0
 45 47  1  0  0  0
 47 58  1  0  0  0
 48 49  2  0  0  0
 48 50  1  0  0  0
 50 59  1  0  0  0
M  END
>  <AUTHOR>
    GENERATED BY OPEN BABEL 2.4.1

>  <CHROM.1>
-62.96954792,-60.70886381,87.04945403,8.25044619,139.61812680,27.08609398
31.43787683,79.30618143,83.95737233,-29.31018234,-133.95806020,-84.86778972
-77.55649463,-2.95988836,-47.70773232,-169.07417486,127.51181498,169.16749026
58.58493672,-82.96842014,-156.22901310,75.79425987,165.50676598,-72.47174010
-105.10633496,166.89566204,-127.10465277,-69.30178802,32.47713058,178.63765585
160.58658336,-10.88275410,81.82875171,104.21990204,-160.59987152,-0.94564257
37.87750651,-0.23157564,-179.55333805,2.31489522,-4.67687255,-7.42812617
0.52751003,-1.13066228,-1.01487875

>  <COMPND>
    UNNAMED

>  <MASTER>
        0    0    0    0    0    0    0    0  109    0  109    0

>  <Name>
FB1.pdb

>  <RI>
0

>  <Rbt.Current_Directory>
/home/fc/tossine/F10/p3/0_clust01

>  <Rbt.Executable>
rbdock/0.1.0

>  <Rbt.Library>
librxdock.so/0.1.0

>  <Rbt.Parameter_File>
/cluster/rxdock/data/scripts/dock.prm

>  <Rbt.Receptor>
rx_4.prm

>  <SCORE>
71.6457

>  <SCORE.INTER>
17.6116

>  <SCORE.INTER.CONST>
1

>  <SCORE.INTER.POLAR>
-0.810024

>  <SCORE.INTER.REPUL>
0.513914

>  <SCORE.INTER.ROT>
32

>  <SCORE.INTER.VDW>
-19.6039

>  <SCORE.INTER.norm>
0.352231

>  <SCORE.INTRA>
33.3731

>  <SCORE.INTRA.DIHEDRAL>
55.06

>  <SCORE.INTRA.DIHEDRAL.0>
47.3121

>  <SCORE.INTRA.POLAR>
0.478077

>  <SCORE.INTRA.POLAR.0>
-1.47808

>  <SCORE.INTRA.REPUL>
0.000262496

>  <SCORE.INTRA.REPUL.0>
0

>  <SCORE.INTRA.VDW>
4.2163

>  <SCORE.INTRA.VDW.0>
-2.78316

>  <SCORE.INTRA.norm>
0.667461

>  <SCORE.RESTR>
20.6611

>  <SCORE.RESTR.CAVITY>
20.6611

>  <SCORE.RESTR.norm>
0.413221

>  <SCORE.SYSTEM>
0

>  <SCORE.SYSTEM.CONST>
0

>  <SCORE.SYSTEM.DIHEDRAL>
0

>  <SCORE.SYSTEM.norm>
0

>  <SCORE.heavy>
50

>  <SCORE.norm>
1.43291

$$$$
