FB1.pdb
  RxDock  10062017553D
librxdock.so/0.1.0
 59 58  0  0  0  0  0  0  0  0999 V2000
   -5.3649  -11.5889    5.6782 C   0  0  0  0  0  0
   -4.2632  -12.6046    5.3848 C   0  0  0  0  0  0
   -2.8710  -12.0495    5.7280 C   0  0  0  0  0  0
   -1.7287  -13.0747    5.5187 C   0  0  0  0  0  0
   -0.2925  -12.4527    5.4134 C   0  0  0  0  0  0
    0.6145  -13.1461    6.4560 C   0  0  0  0  0  0
    0.3355  -12.5517    3.9596 C   0  0  0  0  0  0
    0.5943  -11.1734    3.1854 C   0  0  0  0  0  0
    0.4539  -10.9654    1.6153 C   0  0  0  0  0  0
   -1.0192  -11.3598    0.9864 C   0  0  0  0  0  0
   -2.0640  -10.4057    1.5628 C   0  0  0  0  0  0
   -1.1244  -11.3698   -0.6053 C   0  0  0  0  0  0
   -1.1096  -10.0379   -1.5243 C   0  0  0  0  0  0
   -1.5771  -10.0440   -3.0201 C   0  0  0  0  0  0
   -2.5089   -8.8507   -3.5272 C   0  0  0  0  0  0
   -2.8037   -8.5378   -5.0470 C   0  0  0  0  0  0
   -1.6640   -8.6748   -6.0909 C   0  0  0  0  0  0
   -1.0555  -10.1173   -6.2860 C   0  0  0  0  0  0
    0.1797  -10.4536   -5.4412 C   0  0  0  0  0  0
    1.3398   -9.4194   -5.3872 C   0  0  0  0  0  0
    2.6126   -9.7018   -4.5352 C   0  0  0  0  0  0
    3.5829   -8.5417   -4.3619 C   0  0  0  0  0  0
    2.2520  -10.2872   -3.2300 N   0  0  0  0  0  0
    1.8157   -9.3290   -6.7544 O   0  0  0  0  0  0
   -2.0808  -11.0725   -5.9927 O   0  0  0  0  0  0
   -1.9933   -9.1199   -0.8587 O   0  0  0  0  0  0
   -0.3253  -10.2056    3.7601 O   0  0  0  0  0  0
    0.0570   -9.6021    4.9155 C   0  0  0  0  0  0
    1.1129   -9.0320    5.1142 O   0  0  0  0  0  0
   -1.0889   -9.6653    5.8873 C   0  0  0  0  0  0
   -1.3452   -8.3205    6.5861 C   0  0  0  0  0  0
   -2.8226   -7.9094    6.5477 C   0  0  0  0  0  0
   -3.5742   -8.4654    7.7348 C   0  0  0  0  0  0
   -3.7683   -7.8368    8.7697 O   0  0  0  0  0  0
   -4.0140   -9.7188    7.5495 O   0  0  0  0  0  0
   -0.8894   -8.5069    8.0399 C   0  0  0  0  0  0
   -1.0752   -9.5368    8.6702 O   0  0  0  0  0  0
   -0.3118   -7.4257    8.5814 O   0  0  0  0  0  0
    1.5343  -13.4250    3.9525 O   0  0  0  0  0  0
    2.7323  -12.9034    4.4116 C   0  0  0  0  0  0
    3.7888  -13.5201    4.4559 O   0  0  0  0  0  0
    2.5974  -11.4446    4.8675 C   0  0  0  0  0  0
    3.6655  -10.4570    4.3032 C   0  0  0  0  0  0
    5.1192  -10.6102    4.7866 C   0  0  0  0  0  0
    5.9494   -9.3822    4.5476 C   0  0  0  0  0  0
    6.4847   -9.0773    3.4907 O   0  0  0  0  0  0
    6.0414   -8.6048    5.6374 O   0  0  0  0  0  0
    3.7044  -10.3662    2.7727 C   0  0  0  0  0  0
    3.9160   -9.3278    2.1780 O   0  0  0  0  0  0
    3.5937  -11.5419    2.1195 O   0  0  0  0  0  0
    2.2037  -11.3011   -3.3205 H   0  0  0  0  0  0
    1.3001   -9.9981   -2.9941 H   0  0  0  0  0  0
    2.0150  -10.2549   -7.0079 H   0  0  0  0  0  0
   -1.7583  -11.9548   -6.2538 H   0  0  0  0  0  0
   -1.8356   -8.2329   -1.2232 H   0  0  0  0  0  0
   -4.5921  -10.0662    8.2556 H   0  0  0  0  0  0
   -0.0417   -7.5352    9.5268 H   0  0  0  0  0  0
    6.6456   -7.8678    5.4071 H   0  0  0  0  0  0
    3.8100  -12.3396    2.6516 H   0  0  0  0  0  0
  1  2  1  0  0  0
  2  3  1  0  0  0
  3  4  1  0  0  0
  4  5  1  0  0  0
  5  6  1  0  0  0
  5  7  1  0  0  0
  7  8  1  0  0  0
  7 39  1  0  0  0
  8  9  1  0  0  0
  8 27  1  0  0  0
  9 10  1  0  0  0
 10 11  1  0  0  0
 10 12  1  0  0  0
 12 13  1  0  0  0
 13 14  1  0  0  0
 13 26  1  0  0  0
 14 15  1  0  0  0
 15 16  1  0  0  0
 16 17  1  0  0  0
 17 18  1  0  0  0
 18 19  1  0  0  0
 18 25  1  0  0  0
 19 20  1  0  0  0
 20 21  1  0  0  0
 20 24  1  0  0  0
 21 22  1  0  0  0
 21 23  1  0  0  0
 23 51  1  0  0  0
 23 52  1  0  0  0
 24 53  1  0  0  0
 25 54  1  0  0  0
 26 55  1  0  0  0
 27 28  1  0  0  0
 28 29  2  0  0  0
 28 30  1  0  0  0
 30 31  1  0  0  0
 31 32  1  0  0  0
 31 36  1  0  0  0
 32 33  1  0  0  0
 33 34  2  0  0  0
 33 35  1  0  0  0
 35 56  1  0  0  0
 36 37  2  0  0  0
 36 38  1  0  0  0
 38 57  1  0  0  0
 39 40  1  0  0  0
 40 41  2  0  0  0
 40 42  1  0  0  0
 42 43  1  0  0  0
 43 44  1  0  0  0
 43 48  1  0  0  0
 44 45  1  0  0  0
 45 46  2  0  0  0
 45 47  1  0  0  0
 47 58  1  0  0  0
 48 49  2  0  0  0
 48 50  1  0  0  0
 50 59  1  0  0  0
M  END
>  <AUTHOR>
    GENERATED BY OPEN BABEL 2.4.1

>  <CHROM.1>
176.84945261,161.60305189,125.99004050,114.63934426,-145.51278346,-78.98807228
56.40866494,82.59819299,64.83560095,-71.51197654,-163.87207919,136.14368583
164.63884963,166.09287009,-39.10440615,62.90190839,-93.02238349,-47.36705592
170.68084282,179.43461659,-170.23948103,-54.09460515,88.45634418,52.10869608
-133.86468340,130.96982966,88.65348887,-38.81559881,95.10656191,-173.08844575
178.27222906,-179.96277334,-130.89842203,-68.74438153,-161.40206098,143.17322792
-81.47961148,176.21626199,-20.30159546,0.23938089,-10.26396989,2.24497797
1.62926593,-0.04340304,1.60295474

>  <COMPND>
    UNNAMED

>  <MASTER>
        0    0    0    0    0    0    0    0  109    0  109    0

>  <Name>
FB1.pdb

>  <RI>
0

>  <Rbt.Current_Directory>
/home/fc/tossine/F10/p3/0_clust01

>  <Rbt.Executable>
rbdock/0.1.0

>  <Rbt.Library>
librxdock.so/0.1.0

>  <Rbt.Parameter_File>
/cluster/rxdock/data/scripts/dock.prm

>  <Rbt.Receptor>
rx_3.prm

>  <SCORE>
41.3394

>  <SCORE.INTER>
6.01603

>  <SCORE.INTER.CONST>
1

>  <SCORE.INTER.POLAR>
-2.05216

>  <SCORE.INTER.REPUL>
0.578442

>  <SCORE.INTER.ROT>
32

>  <SCORE.INTER.VDW>
-27.2988

>  <SCORE.INTER.norm>
0.120321

>  <SCORE.INTRA>
32.7885

>  <SCORE.INTRA.DIHEDRAL>
30.8357

>  <SCORE.INTRA.DIHEDRAL.0>
47.3121

>  <SCORE.INTRA.POLAR>
1.47808

>  <SCORE.INTRA.POLAR.0>
-1.47808

>  <SCORE.INTRA.REPUL>
0

>  <SCORE.INTRA.REPUL.0>
0

>  <SCORE.INTRA.VDW>
12.3451

>  <SCORE.INTRA.VDW.0>
-2.78316

>  <SCORE.INTRA.norm>
0.655769

>  <SCORE.RESTR>
2.5349

>  <SCORE.RESTR.CAVITY>
2.5349

>  <SCORE.RESTR.norm>
0.0506981

>  <SCORE.SYSTEM>
0

>  <SCORE.SYSTEM.CONST>
0

>  <SCORE.SYSTEM.DIHEDRAL>
0

>  <SCORE.SYSTEM.norm>
0

>  <SCORE.heavy>
50

>  <SCORE.norm>
0.826788

$$$$
