FB1.pdb
  RxDock  10062018253D
librxdock.so/0.1.0
 59 58  0  0  0  0  0  0  0  0999 V2000
    7.2268   -3.8465   -8.9716 C   0  0  0  0  0  0
    7.4773   -5.0052   -8.0093 C   0  0  0  0  0  0
    6.2639   -5.2633   -7.1008 C   0  0  0  0  0  0
    5.2463   -6.2661   -7.6998 C   0  0  0  0  0  0
    4.8659   -6.0064   -9.1992 C   0  0  0  0  0  0
    4.8139   -7.3682   -9.9297 C   0  0  0  0  0  0
    3.5030   -5.2139   -9.3786 C   0  0  0  0  0  0
    2.3418   -5.9449  -10.2053 C   0  0  0  0  0  0
    0.9719   -6.4687   -9.5910 C   0  0  0  0  0  0
    0.7414   -8.0995   -9.6847 C   0  0  0  0  0  0
    2.0016   -8.7974   -9.1757 C   0  0  0  0  0  0
   -0.5347   -8.6744   -8.9193 C   0  0  0  0  0  0
   -0.9015   -8.3306   -7.3812 C   0  0  0  0  0  0
   -2.3419   -8.5295   -6.7964 C   0  0  0  0  0  0
   -2.8469   -7.5199   -5.6674 C   0  0  0  0  0  0
   -3.9824   -6.4431   -5.8815 C   0  0  0  0  0  0
   -4.2094   -5.3473   -4.8067 C   0  0  0  0  0  0
   -5.6973   -4.8696   -4.5894 C   0  0  0  0  0  0
   -5.9385   -3.3556   -4.6363 C   0  0  0  0  0  0
   -6.3039   -2.7091   -6.0027 C   0  0  0  0  0  0
   -6.4331   -1.1630   -6.1373 C   0  0  0  0  0  0
   -6.9557   -0.6401   -7.4680 C   0  0  0  0  0  0
   -7.2017   -0.5999   -5.0109 N   0  0  0  0  0  0
   -5.2118   -3.0729   -6.8852 O   0  0  0  0  0  0
   -6.5112   -5.4909   -5.5900 O   0  0  0  0  0  0
   -0.0568   -9.1912   -6.5986 O   0  0  0  0  0  0
    1.9370   -5.0151  -11.2465 O   0  0  0  0  0  0
    1.7665   -3.7175  -10.8825 C   0  0  0  0  0  0
    1.4591   -3.3150   -9.7767 O   0  0  0  0  0  0
    2.1214   -2.8440  -12.0540 C   0  0  0  0  0  0
    2.9759   -1.6322  -11.6493 C   0  0  0  0  0  0
    2.1350   -0.4838  -11.0769 C   0  0  0  0  0  0
    1.3301    0.1952  -12.1606 C   0  0  0  0  0  0
    0.5189   -0.3897  -12.8703 O   0  0  0  0  0  0
    1.5859    1.5069  -12.2738 O   0  0  0  0  0  0
    3.9579   -2.1445  -10.5867 C   0  0  0  0  0  0
    4.2286   -1.5198   -9.5723 O   0  0  0  0  0  0
    4.5353   -3.3161  -10.8863 O   0  0  0  0  0  0
    3.0134   -4.6898   -8.0803 O   0  0  0  0  0  0
    3.5025   -3.4734   -7.6340 C   0  0  0  0  0  0
    4.6630   -3.1029   -7.7545 O   0  0  0  0  0  0
    2.4195   -2.6203   -6.9604 C   0  0  0  0  0  0
    2.8792   -1.2176   -6.4549 C   0  0  0  0  0  0
    4.3793   -0.8788   -6.5263 C   0  0  0  0  0  0
    4.6973    0.4903   -5.9983 C   0  0  0  0  0  0
    4.4505    0.8952   -4.8706 O   0  0  0  0  0  0
    5.3198    1.2584   -6.9054 O   0  0  0  0  0  0
    2.1184   -0.0370   -7.0712 C   0  0  0  0  0  0
    1.7282   -0.0314   -8.2220 O   0  0  0  0  0  0
    1.8117    0.9631   -6.2186 O   0  0  0  0  0  0
   -6.5639   -0.3848   -4.2457 H   0  0  0  0  0  0
   -7.8202   -1.3257   -4.6422 H   0  0  0  0  0  0
   -5.6187   -3.1164   -7.7762 H   0  0  0  0  0  0
   -6.2380   -5.1477   -6.4607 H   0  0  0  0  0  0
    0.4103   -8.6422   -5.9467 H   0  0  0  0  0  0
    2.5320    1.7481  -12.2762 H   0  0  0  0  0  0
    5.5235   -3.2885  -10.9237 H   0  0  0  0  0  0
    5.9255    0.6702   -7.4039 H   0  0  0  0  0  0
    2.0887    0.8197   -5.2864 H   0  0  0  0  0  0
  1  2  1  0  0  0
  2  3  1  0  0  0
  3  4  1  0  0  0
  4  5  1  0  0  0
  5  6  1  0  0  0
  5  7  1  0  0  0
  7  8  1  0  0  0
  7 39  1  0  0  0
  8  9  1  0  0  0
  8 27  1  0  0  0
  9 10  1  0  0  0
 10 11  1  0  0  0
 10 12  1  0  0  0
 12 13  1  0  0  0
 13 14  1  0  0  0
 13 26  1  0  0  0
 14 15  1  0  0  0
 15 16  1  0  0  0
 16 17  1  0  0  0
 17 18  1  0  0  0
 18 19  1  0  0  0
 18 25  1  0  0  0
 19 20  1  0  0  0
 20 21  1  0  0  0
 20 24  1  0  0  0
 21 22  1  0  0  0
 21 23  1  0  0  0
 23 51  1  0  0  0
 23 52  1  0  0  0
 24 53  1  0  0  0
 25 54  1  0  0  0
 26 55  1  0  0  0
 27 28  1  0  0  0
 28 29  2  0  0  0
 28 30  1  0  0  0
 30 31  1  0  0  0
 31 32  1  0  0  0
 31 36  1  0  0  0
 32 33  1  0  0  0
 33 34  2  0  0  0
 33 35  1  0  0  0
 35 56  1  0  0  0
 36 37  2  0  0  0
 36 38  1  0  0  0
 38 57  1  0  0  0
 39 40  1  0  0  0
 40 41  2  0  0  0
 40 42  1  0  0  0
 42 43  1  0  0  0
 43 44  1  0  0  0
 43 48  1  0  0  0
 44 45  1  0  0  0
 45 46  2  0  0  0
 45 47  1  0  0  0
 47 58  1  0  0  0
 48 49  2  0  0  0
 48 50  1  0  0  0
 50 59  1  0  0  0
M  END
>  <AUTHOR>
    GENERATED BY OPEN BABEL 2.4.1

>  <CHROM.1>
89.47259442,-46.79285248,138.26434732,-120.32755273,111.82785180,84.90331183
-117.12608157,-44.49719056,48.76812514,-49.81608090,160.61657276,-147.09410472
128.26021848,110.65893818,-168.71893689,-146.01576693,-128.65186110,91.19465870
-65.35228263,-174.43617798,-172.90280029,150.35983846,88.43589380,-27.40312121
-136.21651668,-81.05541860,-71.79121388,-137.60678341,58.15761605,46.27556120
121.45282358,-38.91194666,-178.71931252,-6.73738121,-179.37176440,-35.29288258
58.16716903,-37.22850264,-1.45725197,0.98383255,-3.54671827,-8.17359419,-0.14347709
-0.30839674,3.13574118

>  <COMPND>
    UNNAMED

>  <MASTER>
        0    0    0    0    0    0    0    0  109    0  109    0

>  <Name>
FB1.pdb

>  <RI>
0

>  <Rbt.Current_Directory>
/home/fc/tossine/F10/p3/0_clust01

>  <Rbt.Executable>
rbdock/0.1.0

>  <Rbt.Library>
librxdock.so/0.1.0

>  <Rbt.Parameter_File>
/cluster/rxdock/data/scripts/dock.prm

>  <Rbt.Receptor>
rx_4.prm

>  <SCORE>
97.9185

>  <SCORE.INTER>
31.1154

>  <SCORE.INTER.CONST>
1

>  <SCORE.INTER.POLAR>
-3.96628

>  <SCORE.INTER.REPUL>
0.475624

>  <SCORE.INTER.ROT>
32

>  <SCORE.INTER.VDW>
4.82266

>  <SCORE.INTER.norm>
0.622308

>  <SCORE.INTRA>
55.4458

>  <SCORE.INTRA.DIHEDRAL>
89.9613

>  <SCORE.INTRA.DIHEDRAL.0>
47.3121

>  <SCORE.INTRA.POLAR>
1.47808

>  <SCORE.INTRA.POLAR.0>
-1.47808

>  <SCORE.INTRA.REPUL>
0

>  <SCORE.INTRA.REPUL.0>
0

>  <SCORE.INTRA.VDW>
5.43976

>  <SCORE.INTRA.VDW.0>
-2.78316

>  <SCORE.INTRA.norm>
1.10892

>  <SCORE.RESTR>
11.3573

>  <SCORE.RESTR.CAVITY>
11.3573

>  <SCORE.RESTR.norm>
0.227145

>  <SCORE.SYSTEM>
0

>  <SCORE.SYSTEM.CONST>
0

>  <SCORE.SYSTEM.DIHEDRAL>
0

>  <SCORE.SYSTEM.norm>
0

>  <SCORE.heavy>
50

>  <SCORE.norm>
1.95837

$$$$
