FB1.pdb
  RxDock  10062017523D
librxdock.so/0.1.0
 59 58  0  0  0  0  0  0  0  0999 V2000
   -5.6060   -7.0776    1.9156 C   0  0  0  0  0  0
   -4.9623   -8.4488    1.7235 C   0  0  0  0  0  0
   -3.6105   -8.3465    0.9980 C   0  0  0  0  0  0
   -2.5698   -7.4803    1.7505 C   0  0  0  0  0  0
   -2.1786   -8.0055    3.1759 C   0  0  0  0  0  0
   -3.2949   -7.6001    4.1659 C   0  0  0  0  0  0
   -1.9174   -9.5699    3.2247 C   0  0  0  0  0  0
   -0.7606  -10.1424    2.2760 C   0  0  0  0  0  0
   -0.6743   -9.9227    0.7035 C   0  0  0  0  0  0
    0.5212  -10.7681   -0.0563 C   0  0  0  0  0  0
    0.0383  -11.1379   -1.4578 C   0  0  0  0  0  0
    1.9405  -10.0463   -0.1528 C   0  0  0  0  0  0
    3.3263  -10.8105   -0.4906 C   0  0  0  0  0  0
    4.0968  -10.5966   -1.8384 C   0  0  0  0  0  0
    3.3773   -9.7693   -2.9990 C   0  0  0  0  0  0
    2.1907  -10.3242   -3.8815 C   0  0  0  0  0  0
    1.5849   -9.4317   -4.9967 C   0  0  0  0  0  0
    0.2293   -9.9242   -5.6361 C   0  0  0  0  0  0
   -0.5417   -8.8943   -6.4712 C   0  0  0  0  0  0
   -2.0595   -9.1299   -6.7146 C   0  0  0  0  0  0
   -3.0698   -9.0675   -5.5312 C   0  0  0  0  0  0
   -2.8301  -10.0388   -4.3838 C   0  0  0  0  0  0
   -3.2102   -7.6863   -5.0322 N   0  0  0  0  0  0
   -2.4593   -8.0582   -7.6065 O   0  0  0  0  0  0
    0.5169  -11.0569   -6.4632 O   0  0  0  0  0  0
    4.2406  -10.3885    0.5354 O   0  0  0  0  0  0
    0.4879   -9.5989    2.7842 O   0  0  0  0  0  0
    1.5194  -10.4683    2.9441 C   0  0  0  0  0  0
    2.6850  -10.2607    2.6656 O   0  0  0  0  0  0
    0.9984  -11.7053    3.6222 C   0  0  0  0  0  0
    1.8162  -12.0850    4.8671 C   0  0  0  0  0  0
    1.9835  -10.9121    5.8416 C   0  0  0  0  0  0
    3.4365  -10.5205    5.9789 C   0  0  0  0  0  0
    4.2203  -11.0780    6.7395 O   0  0  0  0  0  0
    3.7922   -9.5001    5.1845 O   0  0  0  0  0  0
    1.0460  -13.2261    5.5458 C   0  0  0  0  0  0
    1.4052  -14.3928    5.5001 O   0  0  0  0  0  0
   -0.0852  -12.8444    6.1546 O   0  0  0  0  0  0
   -1.7742  -10.0455    4.6223 O   0  0  0  0  0  0
   -0.8494   -9.4182    5.4404 C   0  0  0  0  0  0
    0.0160   -8.6460    5.0489 O   0  0  0  0  0  0
   -1.0243   -9.7970    6.9169 C   0  0  0  0  0  0
   -2.4898   -9.7775    7.4522 C   0  0  0  0  0  0
   -3.1899  -11.1275    7.6931 C   0  0  0  0  0  0
   -3.4653  -11.8803    6.4235 C   0  0  0  0  0  0
   -2.6195  -12.3453    5.6720 O   0  0  0  0  0  0
   -4.7782  -12.0205    6.1846 O   0  0  0  0  0  0
   -2.6971   -8.9285    8.7125 C   0  0  0  0  0  0
   -3.6716   -8.2220    8.8798 O   0  0  0  0  0  0
   -1.7740   -9.0964    9.6825 O   0  0  0  0  0  0
   -4.1836   -7.5191   -4.7813 H   0  0  0  0  0  0
   -3.0218   -7.0402   -5.8019 H   0  0  0  0  0  0
   -1.9348   -8.2069   -8.4215 H   0  0  0  0  0  0
   -0.3103  -11.3331   -6.8990 H   0  0  0  0  0  0
    4.3883   -9.4335    0.4323 H   0  0  0  0  0  0
    4.0789   -8.6906    5.6493 H   0  0  0  0  0  0
   -0.6335  -13.5894    6.5056 H   0  0  0  0  0  0
   -4.8597  -12.5540    5.3661 H   0  0  0  0  0  0
   -0.9766   -9.6073    9.4191 H   0  0  0  0  0  0
  1  2  1  0  0  0
  2  3  1  0  0  0
  3  4  1  0  0  0
  4  5  1  0  0  0
  5  6  1  0  0  0
  5  7  1  0  0  0
  7  8  1  0  0  0
  7 39  1  0  0  0
  8  9  1  0  0  0
  8 27  1  0  0  0
  9 10  1  0  0  0
 10 11  1  0  0  0
 10 12  1  0  0  0
 12 13  1  0  0  0
 13 14  1  0  0  0
 13 26  1  0  0  0
 14 15  1  0  0  0
 15 16  1  0  0  0
 16 17  1  0  0  0
 17 18  1  0  0  0
 18 19  1  0  0  0
 18 25  1  0  0  0
 19 20  1  0  0  0
 20 21  1  0  0  0
 20 24  1  0  0  0
 21 22  1  0  0  0
 21 23  1  0  0  0
 23 51  1  0  0  0
 23 52  1  0  0  0
 24 53  1  0  0  0
 25 54  1  0  0  0
 26 55  1  0  0  0
 27 28  1  0  0  0
 28 29  2  0  0  0
 28 30  1  0  0  0
 30 31  1  0  0  0
 31 32  1  0  0  0
 31 36  1  0  0  0
 32 33  1  0  0  0
 33 34  2  0  0  0
 33 35  1  0  0  0
 35 56  1  0  0  0
 36 37  2  0  0  0
 36 38  1  0  0  0
 38 57  1  0  0  0
 39 40  1  0  0  0
 40 41  2  0  0  0
 40 42  1  0  0  0
 42 43  1  0  0  0
 43 44  1  0  0  0
 43 48  1  0  0  0
 44 45  1  0  0  0
 45 46  2  0  0  0
 45 47  1  0  0  0
 47 58  1  0  0  0
 48 49  2  0  0  0
 48 50  1  0  0  0
 50 59  1  0  0  0
M  END
>  <AUTHOR>
    GENERATED BY OPEN BABEL 2.4.1

>  <CHROM.1>
59.86504951,61.25857853,-79.29934481,59.14858186,-54.97910993,-53.29431177
-173.10109044,132.72483203,147.20976660,163.24434769,111.00555996,-9.38798644
-64.79098082,-73.74723326,-179.08088009,-167.98847304,165.34144914,-159.48969017
-176.88180068,66.55589889,-58.65304496,62.46789834,142.10244015,138.53739008
-127.71868238,51.76948843,-116.38069488,105.25469086,-83.83724096,116.52780253
173.55440526,-12.54883442,-45.48615973,105.68468829,-67.76050489,139.63510945
65.92260194,-177.47535004,11.29751715,-0.45506776,-10.03217111,1.94399634
1.51603436,0.31225184,-1.46550295

>  <COMPND>
    UNNAMED

>  <MASTER>
        0    0    0    0    0    0    0    0  109    0  109    0

>  <Name>
FB1.pdb

>  <RI>
0

>  <Rbt.Current_Directory>
/home/fc/tossine/F10/p3/0_clust01

>  <Rbt.Executable>
rbdock/0.1.0

>  <Rbt.Library>
librxdock.so/0.1.0

>  <Rbt.Parameter_File>
/cluster/rxdock/data/scripts/dock.prm

>  <Rbt.Receptor>
rx_3.prm

>  <SCORE>
34.0714

>  <SCORE.INTER>
10.0894

>  <SCORE.INTER.CONST>
1

>  <SCORE.INTER.POLAR>
-0.658204

>  <SCORE.INTER.REPUL>
0.473198

>  <SCORE.INTER.ROT>
32

>  <SCORE.INTER.VDW>
-27.4387

>  <SCORE.INTER.norm>
0.201788

>  <SCORE.INTRA>
21.7064

>  <SCORE.INTRA.DIHEDRAL>
36.5002

>  <SCORE.INTRA.DIHEDRAL.0>
47.3121

>  <SCORE.INTRA.POLAR>
1.23238

>  <SCORE.INTRA.POLAR.0>
-1.47808

>  <SCORE.INTRA.REPUL>
0.0415664

>  <SCORE.INTRA.REPUL.0>
0

>  <SCORE.INTRA.VDW>
-0.941672

>  <SCORE.INTRA.VDW.0>
-2.78316

>  <SCORE.INTRA.norm>
0.434128

>  <SCORE.RESTR>
2.27561

>  <SCORE.RESTR.CAVITY>
2.27561

>  <SCORE.RESTR.norm>
0.0455121

>  <SCORE.SYSTEM>
0

>  <SCORE.SYSTEM.CONST>
0

>  <SCORE.SYSTEM.DIHEDRAL>
0

>  <SCORE.SYSTEM.norm>
0

>  <SCORE.heavy>
50

>  <SCORE.norm>
0.681427

$$$$
