FB1.pdb
  RxDock  10062017573D
librxdock.so/0.1.0
 59 58  0  0  0  0  0  0  0  0999 V2000
    8.4608   -1.2162   -5.5820 C   0  0  0  0  0  0
    8.1907   -0.5828   -6.9448 C   0  0  0  0  0  0
    6.9395   -1.1781   -7.6114 C   0  0  0  0  0  0
    6.8398   -2.7178   -7.4737 C   0  0  0  0  0  0
    5.9071   -3.4169   -8.5234 C   0  0  0  0  0  0
    6.7679   -3.8275   -9.7404 C   0  0  0  0  0  0
    5.1191   -4.6641   -7.9389 C   0  0  0  0  0  0
    4.5820   -4.5430   -6.4346 C   0  0  0  0  0  0
    5.3298   -5.1033   -5.1481 C   0  0  0  0  0  0
    5.1995   -6.7315   -4.9169 C   0  0  0  0  0  0
    5.9743   -7.1057   -3.6545 C   0  0  0  0  0  0
    3.7165   -7.3123   -4.8263 C   0  0  0  0  0  0
    3.3531   -8.7925   -4.2827 C   0  0  0  0  0  0
    1.9765   -9.4811   -4.5771 C   0  0  0  0  0  0
    1.7270  -10.9507   -4.0049 C   0  0  0  0  0  0
    1.4083  -11.2729   -2.4919 C   0  0  0  0  0  0
    2.0489  -10.4078   -1.3745 C   0  0  0  0  0  0
    3.6251  -10.3435   -1.3483 C   0  0  0  0  0  0
    4.2930  -10.5985    0.0087 C   0  0  0  0  0  0
    3.8167   -9.7662    1.2329 C   0  0  0  0  0  0
    2.9288  -10.4165    2.3348 C   0  0  0  0  0  0
    1.4474  -10.5592    2.0145 C   0  0  0  0  0  0
    3.4989  -11.7031    2.7777 N   0  0  0  0  0  0
    5.0383   -9.3816    1.9137 O   0  0  0  0  0  0
    4.1220  -11.3034   -2.2872 O   0  0  0  0  0  0
    4.3386   -9.6558   -4.8745 O   0  0  0  0  0  0
    4.4284   -3.1220   -6.1711 O   0  0  0  0  0  0
    3.5864   -2.7686   -5.1654 C   0  0  0  0  0  0
    3.6902   -3.0851   -3.9956 O   0  0  0  0  0  0
    2.5505   -1.8298   -5.7196 C   0  0  0  0  0  0
    3.1212   -0.4363   -6.0277 C   0  0  0  0  0  0
    2.0689    0.5146   -6.6123 C   0  0  0  0  0  0
    2.6904    1.8296   -7.0223 C   0  0  0  0  0  0
    3.6366    2.3445   -6.4365 O   0  0  0  0  0  0
    2.1077    2.3844   -8.0954 O   0  0  0  0  0  0
    3.6399    0.1120   -4.6911 C   0  0  0  0  0  0
    4.8282    0.1941   -4.4200 O   0  0  0  0  0  0
    2.6780    0.4496   -3.8212 O   0  0  0  0  0  0
    4.0570   -5.1117   -8.8724 O   0  0  0  0  0  0
    2.8353   -4.4601   -8.8421 C   0  0  0  0  0  0
    2.3784   -3.8824   -7.8644 O   0  0  0  0  0  0
    2.0990   -4.5372  -10.1860 C   0  0  0  0  0  0
    2.1486   -3.2460  -11.0606 C   0  0  0  0  0  0
    1.4760   -1.9744  -10.5119 C   0  0  0  0  0  0
    1.9634   -1.5973   -9.1427 C   0  0  0  0  0  0
    1.2897   -1.5930   -8.1216 O   0  0  0  0  0  0
    3.2643   -1.2688   -9.1335 O   0  0  0  0  0  0
    3.5530   -2.8484  -11.5315 C   0  0  0  0  0  0
    3.8665   -1.7004  -11.7775 O   0  0  0  0  0  0
    4.4606   -3.8468  -11.5547 O   0  0  0  0  0  0
    3.4463  -12.3731    2.0116 H   0  0  0  0  0  0
    2.8992  -12.0916    3.5090 H   0  0  0  0  0  0
    5.4991   -8.7925    1.2796 H   0  0  0  0  0  0
    4.0666  -10.9134   -3.1790 H   0  0  0  0  0  0
    4.2784   -9.5633   -5.8401 H   0  0  0  0  0  0
    1.2145    2.0497   -8.3041 H   0  0  0  0  0  0
    3.0095    0.7370   -2.9345 H   0  0  0  0  0  0
    3.5501   -1.2776   -8.1956 H   0  0  0  0  0  0
    5.3432   -3.6034  -11.9125 H   0  0  0  0  0  0
  1  2  1  0  0  0
  2  3  1  0  0  0
  3  4  1  0  0  0
  4  5  1  0  0  0
  5  6  1  0  0  0
  5  7  1  0  0  0
  7  8  1  0  0  0
  7 39  1  0  0  0
  8  9  1  0  0  0
  8 27  1  0  0  0
  9 10  1  0  0  0
 10 11  1  0  0  0
 10 12  1  0  0  0
 12 13  1  0  0  0
 13 14  1  0  0  0
 13 26  1  0  0  0
 14 15  1  0  0  0
 15 16  1  0  0  0
 16 17  1  0  0  0
 17 18  1  0  0  0
 18 19  1  0  0  0
 18 25  1  0  0  0
 19 20  1  0  0  0
 20 21  1  0  0  0
 20 24  1  0  0  0
 21 22  1  0  0  0
 21 23  1  0  0  0
 23 51  1  0  0  0
 23 52  1  0  0  0
 24 53  1  0  0  0
 25 54  1  0  0  0
 26 55  1  0  0  0
 27 28  1  0  0  0
 28 29  2  0  0  0
 28 30  1  0  0  0
 30 31  1  0  0  0
 31 32  1  0  0  0
 31 36  1  0  0  0
 32 33  1  0  0  0
 33 34  2  0  0  0
 33 35  1  0  0  0
 35 56  1  0  0  0
 36 37  2  0  0  0
 36 38  1  0  0  0
 38 57  1  0  0  0
 39 40  1  0  0  0
 40 41  2  0  0  0
 40 42  1  0  0  0
 42 43  1  0  0  0
 43 44  1  0  0  0
 43 48  1  0  0  0
 44 45  1  0  0  0
 45 46  2  0  0  0
 45 47  1  0  0  0
 47 58  1  0  0  0
 48 49  2  0  0  0
 48 50  1  0  0  0
 50 59  1  0  0  0
M  END
>  <AUTHOR>
    GENERATED BY OPEN BABEL 2.4.1

>  <CHROM.1>
-42.51955935,-159.40208562,91.71393676,38.07605295,-96.35809190,-83.31274645
-77.48514298,158.47862821,179.65657411,-165.79444855,-162.15143255,179.39090250
-58.04574364,75.68704098,-33.93049121,-57.83330616,-131.00613448,-52.44717124
80.32083653,105.78048045,-79.24455202,65.02817040,-67.01547973,60.14412222
-72.43937742,179.15340273,-174.71043789,106.40920904,-33.13847136,18.54658076
175.50260763,-26.29484620,-102.75108595,-64.04927341,54.09907965,-152.54661469
-114.75316930,-164.97466287,176.14121529,3.79349170,-4.64600541,-5.58779722
-1.23514016,1.46225095,2.10219251

>  <COMPND>
    UNNAMED

>  <MASTER>
        0    0    0    0    0    0    0    0  109    0  109    0

>  <Name>
FB1.pdb

>  <RI>
0

>  <Rbt.Current_Directory>
/home/fc/tossine/F10/p3/0_clust01

>  <Rbt.Executable>
rbdock/0.1.0

>  <Rbt.Library>
librxdock.so/0.1.0

>  <Rbt.Parameter_File>
/cluster/rxdock/data/scripts/dock.prm

>  <Rbt.Receptor>
rx_3.prm

>  <SCORE>
69.4667

>  <SCORE.INTER>
37.8426

>  <SCORE.INTER.CONST>
1

>  <SCORE.INTER.POLAR>
-1.24355

>  <SCORE.INTER.REPUL>
1.68524

>  <SCORE.INTER.ROT>
32

>  <SCORE.INTER.VDW>
-3.75558

>  <SCORE.INTER.norm>
0.756851

>  <SCORE.INTRA>
16.0864

>  <SCORE.INTRA.DIHEDRAL>
26.8147

>  <SCORE.INTRA.DIHEDRAL.0>
47.3121

>  <SCORE.INTRA.POLAR>
0.482352

>  <SCORE.INTRA.POLAR.0>
-1.47808

>  <SCORE.INTRA.REPUL>
0

>  <SCORE.INTRA.REPUL.0>
0

>  <SCORE.INTRA.VDW>
1.03903

>  <SCORE.INTRA.VDW.0>
-2.78316

>  <SCORE.INTRA.norm>
0.321728

>  <SCORE.RESTR>
15.5378

>  <SCORE.RESTR.CAVITY>
15.5378

>  <SCORE.RESTR.norm>
0.310756

>  <SCORE.SYSTEM>
0

>  <SCORE.SYSTEM.CONST>
0

>  <SCORE.SYSTEM.DIHEDRAL>
0

>  <SCORE.SYSTEM.norm>
0

>  <SCORE.heavy>
50

>  <SCORE.norm>
1.38933

$$$$
