FB1.pdb
  RxDock  10062017143D
librxdock.so/0.1.0
 59 58  0  0  0  0  0  0  0  0999 V2000
  -14.0473   -4.9224   14.8829 C   0  0  0  0  0  0
  -12.7454   -4.3529   14.3244 C   0  0  0  0  0  0
  -12.9886   -3.5067   13.0638 C   0  0  0  0  0  0
  -13.6178   -4.3058   11.8954 C   0  0  0  0  0  0
  -13.1731   -3.8449   10.4636 C   0  0  0  0  0  0
  -13.7766   -2.4471   10.1942 C   0  0  0  0  0  0
  -11.5991   -3.8317   10.2629 C   0  0  0  0  0  0
  -11.0389   -4.4143    8.8798 C   0  0  0  0  0  0
  -11.0999   -5.9406    8.4382 C   0  0  0  0  0  0
  -10.9644   -7.0308    9.6689 C   0  0  0  0  0  0
  -10.0890   -6.4213   10.7627 C   0  0  0  0  0  0
  -12.3333   -7.5469   10.3049 C   0  0  0  0  0  0
  -13.3010   -8.6419    9.6099 C   0  0  0  0  0  0
  -14.7914   -8.3306    9.2384 C   0  0  0  0  0  0
  -15.0864   -7.1172    8.2436 C   0  0  0  0  0  0
  -14.5838   -7.0522    6.7477 C   0  0  0  0  0  0
  -15.2569   -6.0657    5.7572 C   0  0  0  0  0  0
  -14.2915   -5.1795    4.8785 C   0  0  0  0  0  0
  -14.9555   -4.3217    3.7942 C   0  0  0  0  0  0
  -15.5136   -5.0339    2.5295 C   0  0  0  0  0  0
  -14.6333   -6.0458    1.7378 C   0  0  0  0  0  0
  -14.5137   -5.8113    0.2385 C   0  0  0  0  0  0
  -13.3018   -6.1816    2.3582 N   0  0  0  0  0  0
  -16.6384   -5.8122    3.0121 O   0  0  0  0  0  0
  -13.5616   -4.3167    5.7575 O   0  0  0  0  0  0
  -12.6621   -8.9608    8.3622 O   0  0  0  0  0  0
  -11.7448   -3.7061    7.8250 O   0  0  0  0  0  0
  -11.3282   -2.4441    7.5436 C   0  0  0  0  0  0
  -10.4858   -1.8121    8.1521 O   0  0  0  0  0  0
  -12.0111   -1.9872    6.2841 C   0  0  0  0  0  0
  -13.5034   -1.6872    6.4972 C   0  0  0  0  0  0
  -13.7383   -0.5599    7.5108 C   0  0  0  0  0  0
  -12.8782    0.6425    7.1980 C   0  0  0  0  0  0
  -11.7506    0.8061    7.6511 O   0  0  0  0  0  0
  -13.4664    1.5196    6.3712 O   0  0  0  0  0  0
  -14.0524   -1.2805    5.1227 C   0  0  0  0  0  0
  -15.1949   -1.5211    4.7630 O   0  0  0  0  0  0
  -13.1579   -0.6804    4.3254 O   0  0  0  0  0  0
  -11.0310   -2.4972   10.5729 O   0  0  0  0  0  0
   -9.6536   -2.3638   10.6275 C   0  0  0  0  0  0
   -8.8621   -3.2973   10.6047 O   0  0  0  0  0  0
   -9.2123   -0.8971   10.7206 C   0  0  0  0  0  0
  -10.1169    0.0283   11.5922 C   0  0  0  0  0  0
  -11.3325    0.6926   10.9202 C   0  0  0  0  0  0
  -11.4461    2.1574   11.2298 C   0  0  0  0  0  0
  -12.3122    2.6755   11.9211 O   0  0  0  0  0  0
  -10.4606    2.8776   10.6727 O   0  0  0  0  0  0
  -10.6125   -0.6091   12.8962 C   0  0  0  0  0  0
  -10.8027   -1.8033   13.0167 O   0  0  0  0  0  0
  -10.7246    0.2315   13.9460 O   0  0  0  0  0  0
  -12.7270   -6.7970    1.7842 H   0  0  0  0  0  0
  -13.4051   -6.6727    3.2491 H   0  0  0  0  0  0
  -16.9542   -6.3038    2.2247 H   0  0  0  0  0  0
  -14.1707   -4.0038    6.4515 H   0  0  0  0  0  0
  -12.5733   -8.1389    7.8512 H   0  0  0  0  0  0
  -14.4035    1.7122    6.5664 H   0  0  0  0  0  0
  -13.4855   -0.4909    3.4113 H   0  0  0  0  0  0
  -10.6043    3.8086   10.9445 H   0  0  0  0  0  0
  -10.4996    1.1697   13.7582 H   0  0  0  0  0  0
  1  2  1  0  0  0
  2  3  1  0  0  0
  3  4  1  0  0  0
  4  5  1  0  0  0
  5  6  1  0  0  0
  5  7  1  0  0  0
  7  8  1  0  0  0
  7 39  1  0  0  0
  8  9  1  0  0  0
  8 27  1  0  0  0
  9 10  1  0  0  0
 10 11  1  0  0  0
 10 12  1  0  0  0
 12 13  1  0  0  0
 13 14  1  0  0  0
 13 26  1  0  0  0
 14 15  1  0  0  0
 15 16  1  0  0  0
 16 17  1  0  0  0
 17 18  1  0  0  0
 18 19  1  0  0  0
 18 25  1  0  0  0
 19 20  1  0  0  0
 20 21  1  0  0  0
 20 24  1  0  0  0
 21 22  1  0  0  0
 21 23  1  0  0  0
 23 51  1  0  0  0
 23 52  1  0  0  0
 24 53  1  0  0  0
 25 54  1  0  0  0
 26 55  1  0  0  0
 27 28  1  0  0  0
 28 29  2  0  0  0
 28 30  1  0  0  0
 30 31  1  0  0  0
 31 32  1  0  0  0
 31 36  1  0  0  0
 32 33  1  0  0  0
 33 34  2  0  0  0
 33 35  1  0  0  0
 35 56  1  0  0  0
 36 37  2  0  0  0
 36 38  1  0  0  0
 38 57  1  0  0  0
 39 40  1  0  0  0
 40 41  2  0  0  0
 40 42  1  0  0  0
 42 43  1  0  0  0
 43 44  1  0  0  0
 43 48  1  0  0  0
 44 45  1  0  0  0
 45 46  2  0  0  0
 45 47  1  0  0  0
 47 58  1  0  0  0
 48 49  2  0  0  0
 48 50  1  0  0  0
 50 59  1  0  0  0
M  END
>  <AUTHOR>
    GENERATED BY OPEN BABEL 2.4.1

>  <CHROM.1>
-61.19467991,-146.96214347,-68.97135473,137.18670186,-68.13124642,171.21511594
-33.29945514,77.94134497,-30.70829950,76.81620092,-120.68246382,58.29874985
-58.46729369,62.43092665,161.93427593,132.41229346,173.43127348,-72.76219841
-39.76270613,-49.78015162,-128.12272089,-176.57847344,-176.04429924,-5.70032186
72.27241765,61.41242707,49.05243299,147.40296167,-90.14108146,43.60825551
174.76980788,-9.63739447,37.30788393,-86.74906079,-132.99799889,-29.79040157
-110.93765199,-178.68064795,1.57242735,-12.61494931,-3.22677552,8.44394884
-0.05853409,1.22019655,2.65547221

>  <COMPND>
    UNNAMED

>  <MASTER>
        0    0    0    0    0    0    0    0  109    0  109    0

>  <Name>
FB1.pdb

>  <RI>
0

>  <Rbt.Current_Directory>
/home/fc/tossine/F10/p3/0_clust01

>  <Rbt.Executable>
rbdock/0.1.0

>  <Rbt.Library>
librxdock.so/0.1.0

>  <Rbt.Parameter_File>
/cluster/rxdock/data/scripts/dock.prm

>  <Rbt.Receptor>
rx_2.prm

>  <SCORE>
25.8847

>  <SCORE.INTER>
0.597812

>  <SCORE.INTER.CONST>
1

>  <SCORE.INTER.POLAR>
-2.58789

>  <SCORE.INTER.REPUL>
0.0895855

>  <SCORE.INTER.ROT>
32

>  <SCORE.INTER.VDW>
-28.4513

>  <SCORE.INTER.norm>
0.0119562

>  <SCORE.INTRA>
18.5223

>  <SCORE.INTRA.DIHEDRAL>
21.8139

>  <SCORE.INTRA.DIHEDRAL.0>
47.3121

>  <SCORE.INTRA.POLAR>
1.47808

>  <SCORE.INTRA.POLAR.0>
-1.47808

>  <SCORE.INTRA.REPUL>
0.666072

>  <SCORE.INTRA.REPUL.0>
0

>  <SCORE.INTRA.VDW>
-0.740508

>  <SCORE.INTRA.VDW.0>
-2.78316

>  <SCORE.INTRA.norm>
0.370445

>  <SCORE.RESTR>
6.76464

>  <SCORE.RESTR.CAVITY>
6.76464

>  <SCORE.RESTR.norm>
0.135293

>  <SCORE.SYSTEM>
0

>  <SCORE.SYSTEM.CONST>
0

>  <SCORE.SYSTEM.DIHEDRAL>
0

>  <SCORE.SYSTEM.norm>
0

>  <SCORE.heavy>
50

>  <SCORE.norm>
0.517694

$$$$
