FB1.pdb
  RxDock  10062017243D
librxdock.so/0.1.0
 59 58  0  0  0  0  0  0  0  0999 V2000
    7.7228   -2.8984   -9.4210 C   0  0  0  0  0  0
    8.2291   -3.8098   -8.3055 C   0  0  0  0  0  0
    7.3553   -3.7059   -7.0446 C   0  0  0  0  0  0
    6.3251   -4.8551   -6.9109 C   0  0  0  0  0  0
    5.5183   -5.1757   -8.2173 C   0  0  0  0  0  0
    4.5712   -6.3622   -7.9242 C   0  0  0  0  0  0
    4.7116   -3.9325   -8.7845 C   0  0  0  0  0  0
    3.1131   -4.0137   -8.7195 C   0  0  0  0  0  0
    2.1159   -2.9747   -9.3934 C   0  0  0  0  0  0
    2.6527   -1.4153   -9.4339 C   0  0  0  0  0  0
    3.8561   -1.3408  -10.3722 C   0  0  0  0  0  0
    1.5788   -0.3127   -9.8528 C   0  0  0  0  0  0
    1.1499    0.0021  -11.3811 C   0  0  0  0  0  0
    1.5474    1.3323  -12.1082 C   0  0  0  0  0  0
    0.8994    1.6383  -13.5350 C   0  0  0  0  0  0
    0.8496    3.0702  -14.1997 C   0  0  0  0  0  0
   -0.2575    3.3932  -15.2377 C   0  0  0  0  0  0
   -0.1469    4.7819  -15.9782 C   0  0  0  0  0  0
    1.2113    5.1076  -16.6121 C   0  0  0  0  0  0
    2.1493    6.1046  -15.8742 C   0  0  0  0  0  0
    3.1827    6.9556  -16.6699 C   0  0  0  0  0  0
    4.1771    7.7599  -15.8443 C   0  0  0  0  0  0
    3.8780    6.1314  -17.6767 N   0  0  0  0  0  0
    1.2540    7.0715  -15.2680 O   0  0  0  0  0  0
   -1.1468    4.8173  -17.0022 O   0  0  0  0  0  0
    1.7549   -1.0453  -12.1579 O   0  0  0  0  0  0
    2.7472   -5.2937   -9.3027 O   0  0  0  0  0  0
    2.0438   -5.2638  -10.4644 C   0  0  0  0  0  0
    2.4055   -4.7620  -11.5117 O   0  0  0  0  0  0
    0.7749   -6.0477  -10.2729 C   0  0  0  0  0  0
    0.3436   -6.7930  -11.5461 C   0  0  0  0  0  0
   -0.3244   -8.1401  -11.2419 C   0  0  0  0  0  0
   -1.0131   -8.6959  -12.4667 C   0  0  0  0  0  0
   -2.2305   -8.7086  -12.6132 O   0  0  0  0  0  0
   -0.1629   -9.1761  -13.3861 O   0  0  0  0  0  0
   -0.6472   -5.8653  -12.2628 C   0  0  0  0  0  0
   -1.8368   -6.1194  -12.3755 O   0  0  0  0  0  0
   -0.0906   -4.7715  -12.8010 O   0  0  0  0  0  0
    5.2252   -2.6595   -8.2227 O   0  0  0  0  0  0
    4.4061   -1.9369   -7.3712 C   0  0  0  0  0  0
    3.6020   -2.4317   -6.5922 O   0  0  0  0  0  0
    4.6143   -0.4227   -7.5064 C   0  0  0  0  0  0
    5.0709    0.3166   -6.2104 C   0  0  0  0  0  0
    6.5555    0.7043   -6.0837 C   0  0  0  0  0  0
    7.3209   -0.1992   -5.1605 C   0  0  0  0  0  0
    7.6037   -1.3691   -5.3793 O   0  0  0  0  0  0
    7.7003    0.4215   -4.0330 O   0  0  0  0  0  0
    4.2463    1.5622   -5.8628 C   0  0  0  0  0  0
    3.5059    1.6165   -4.9007 O   0  0  0  0  0  0
    4.4753    2.6434   -6.6373 O   0  0  0  0  0  0
    4.3904    5.3881  -17.2039 H   0  0  0  0  0  0
    4.5973    6.7025  -18.1261 H   0  0  0  0  0  0
    0.7184    6.5486  -14.6348 H   0  0  0  0  0  0
   -1.1199    3.9697  -17.4832 H   0  0  0  0  0  0
    1.9064   -0.7049  -13.0555 H   0  0  0  0  0  0
    0.6877   -8.7015  -13.4551 H   0  0  0  0  0  0
   -0.7392   -4.1071  -13.1426 H   0  0  0  0  0  0
    7.0104    1.0890   -3.8335 H   0  0  0  0  0  0
    3.9320    3.4345   -6.4247 H   0  0  0  0  0  0
  1  2  1  0  0  0
  2  3  1  0  0  0
  3  4  1  0  0  0
  4  5  1  0  0  0
  5  6  1  0  0  0
  5  7  1  0  0  0
  7  8  1  0  0  0
  7 39  1  0  0  0
  8  9  1  0  0  0
  8 27  1  0  0  0
  9 10  1  0  0  0
 10 11  1  0  0  0
 10 12  1  0  0  0
 12 13  1  0  0  0
 13 14  1  0  0  0
 13 26  1  0  0  0
 14 15  1  0  0  0
 15 16  1  0  0  0
 16 17  1  0  0  0
 17 18  1  0  0  0
 18 19  1  0  0  0
 18 25  1  0  0  0
 19 20  1  0  0  0
 20 21  1  0  0  0
 20 24  1  0  0  0
 21 22  1  0  0  0
 21 23  1  0  0  0
 23 51  1  0  0  0
 23 52  1  0  0  0
 24 53  1  0  0  0
 25 54  1  0  0  0
 26 55  1  0  0  0
 27 28  1  0  0  0
 28 29  2  0  0  0
 28 30  1  0  0  0
 30 31  1  0  0  0
 31 32  1  0  0  0
 31 36  1  0  0  0
 32 33  1  0  0  0
 33 34  2  0  0  0
 33 35  1  0  0  0
 35 56  1  0  0  0
 36 37  2  0  0  0
 36 38  1  0  0  0
 38 57  1  0  0  0
 39 40  1  0  0  0
 40 41  2  0  0  0
 40 42  1  0  0  0
 42 43  1  0  0  0
 43 44  1  0  0  0
 43 48  1  0  0  0
 44 45  1  0  0  0
 45 46  2  0  0  0
 45 47  1  0  0  0
 47 58  1  0  0  0
 48 49  2  0  0  0
 48 50  1  0  0  0
 50 59  1  0  0  0
M  END
>  <AUTHOR>
    GENERATED BY OPEN BABEL 2.4.1

>  <CHROM.1>
99.30194991,-46.48388891,178.44874388,-112.21565269,-171.77489266,-112.80444009
-33.49103051,-114.44050378,66.93574540,-80.20840331,-109.83338095,-171.24619050
-153.10528572,161.42082063,-154.64278362,-173.27030798,50.57476863,-102.72674823
-45.97910656,-152.70154188,-172.08991089,62.74266879,-61.68490015,59.81082629
-145.45825688,145.54969352,167.00857068,-111.90063266,-106.30700076,-33.89857289
-171.22823311,33.36841890,-120.24359173,102.20427700,-103.61275362,111.07641467
69.61074070,31.71816905,178.76266405,2.87847858,-1.26947936,-10.59556827
-1.32717889,-0.87839919,-0.40382864

>  <COMPND>
    UNNAMED

>  <MASTER>
        0    0    0    0    0    0    0    0  109    0  109    0

>  <Name>
FB1.pdb

>  <RI>
0

>  <Rbt.Current_Directory>
/home/fc/tossine/F10/p3/0_clust01

>  <Rbt.Executable>
rbdock/0.1.0

>  <Rbt.Library>
librxdock.so/0.1.0

>  <Rbt.Parameter_File>
/cluster/rxdock/data/scripts/dock.prm

>  <Rbt.Receptor>
rx_2.prm

>  <SCORE>
88.7699

>  <SCORE.INTER>
20.4684

>  <SCORE.INTER.CONST>
1

>  <SCORE.INTER.POLAR>
-5.40479

>  <SCORE.INTER.REPUL>
1.62975

>  <SCORE.INTER.ROT>
32

>  <SCORE.INTER.VDW>
-6.70401

>  <SCORE.INTER.norm>
0.409369

>  <SCORE.INTRA>
57.5575

>  <SCORE.INTRA.DIHEDRAL>
62.4847

>  <SCORE.INTRA.DIHEDRAL.0>
47.3121

>  <SCORE.INTRA.POLAR>
1.47808

>  <SCORE.INTRA.POLAR.0>
-1.47808

>  <SCORE.INTRA.REPUL>
0.0438788

>  <SCORE.INTRA.REPUL.0>
0

>  <SCORE.INTRA.VDW>
21.0703

>  <SCORE.INTRA.VDW.0>
-2.78316

>  <SCORE.INTRA.norm>
1.15115

>  <SCORE.RESTR>
10.744

>  <SCORE.RESTR.CAVITY>
10.744

>  <SCORE.RESTR.norm>
0.21488

>  <SCORE.SYSTEM>
0

>  <SCORE.SYSTEM.CONST>
0

>  <SCORE.SYSTEM.DIHEDRAL>
0

>  <SCORE.SYSTEM.norm>
0

>  <SCORE.heavy>
50

>  <SCORE.norm>
1.7754

$$$$
