FB1.pdb
  RxDock  10062017503D
librxdock.so/0.1.0
 59 58  0  0  0  0  0  0  0  0999 V2000
    3.0286  -15.3556    4.4582 C   0  0  0  0  0  0
    2.5234  -13.9235    4.6171 C   0  0  0  0  0  0
    1.1538  -13.7252    3.9468 C   0  0  0  0  0  0
   -0.0349  -13.7987    4.9374 C   0  0  0  0  0  0
   -1.0643  -12.6206    4.8240 C   0  0  0  0  0  0
   -2.0411  -12.7127    6.0191 C   0  0  0  0  0  0
   -0.3834  -11.1890    4.7567 C   0  0  0  0  0  0
   -1.3339   -9.9214    4.9932 C   0  0  0  0  0  0
   -2.9189   -9.9300    4.8667 C   0  0  0  0  0  0
   -3.4979   -9.8439    3.3244 C   0  0  0  0  0  0
   -3.9210  -11.2451    2.8862 C   0  0  0  0  0  0
   -4.6981   -8.8219    3.0799 C   0  0  0  0  0  0
   -4.5042   -7.3023    2.5583 C   0  0  0  0  0  0
   -3.3924   -6.9030    1.5285 C   0  0  0  0  0  0
   -3.6692   -7.1603   -0.0227 C   0  0  0  0  0  0
   -4.1540   -6.0492   -1.0352 C   0  0  0  0  0  0
   -5.2489   -6.3920   -2.0798 C   0  0  0  0  0  0
   -5.1330   -5.6798   -3.4828 C   0  0  0  0  0  0
   -6.4058   -5.0050   -4.0093 C   0  0  0  0  0  0
   -7.0435   -3.8692   -3.1599 C   0  0  0  0  0  0
   -8.3930   -4.0989   -2.4172 C   0  0  0  0  0  0
   -9.6337   -4.2255   -3.2901 C   0  0  0  0  0  0
   -8.2902   -5.2329   -1.4792 N   0  0  0  0  0  0
   -6.0770   -3.6081   -2.1103 O   0  0  0  0  0  0
   -4.0990   -4.6936   -3.3935 O   0  0  0  0  0  0
   -5.7469   -6.9706    1.9163 O   0  0  0  0  0  0
   -1.0840   -9.4743    6.3534 O   0  0  0  0  0  0
   -0.7803   -8.1614    6.5252 C   0  0  0  0  0  0
   -0.5939   -7.3448    5.6433 O   0  0  0  0  0  0
   -0.8115   -7.8543    7.9969 C   0  0  0  0  0  0
   -2.0939   -8.3581    8.6781 C   0  0  0  0  0  0
   -2.4131   -7.5948    9.9700 C   0  0  0  0  0  0
   -1.3440   -7.8195   11.0141 C   0  0  0  0  0  0
   -1.4902   -8.5498   11.9882 O   0  0  0  0  0  0
   -0.2116   -7.1423   10.7736 O   0  0  0  0  0  0
   -3.2215   -8.1560    7.6565 C   0  0  0  0  0  0
   -3.0394   -7.6738    6.5489 O   0  0  0  0  0  0
   -4.4371   -8.5074    8.0977 O   0  0  0  0  0  0
    0.8337  -11.1346    5.6026 O   0  0  0  0  0  0
    1.7419  -10.1117    5.3859 C   0  0  0  0  0  0
    1.4407   -8.9697    5.0641 O   0  0  0  0  0  0
    3.1928  -10.5650    5.5952 C   0  0  0  0  0  0
    4.0857  -10.5906    4.3159 C   0  0  0  0  0  0
    3.4987  -10.0185    3.0126 C   0  0  0  0  0  0
    3.3066  -11.0606    1.9488 C   0  0  0  0  0  0
    3.3461  -12.2712    2.1204 O   0  0  0  0  0  0
    3.0586  -10.5245    0.7440 O   0  0  0  0  0  0
    5.4767   -9.9703    4.4967 C   0  0  0  0  0  0
    5.8434   -9.4639    5.5386 O   0  0  0  0  0  0
    6.3168  -10.1168    3.4507 O   0  0  0  0  0  0
   -8.0255   -4.8828   -0.5595 H   0  0  0  0  0  0
   -7.5103   -5.8271   -1.7693 H   0  0  0  0  0  0
   -6.3400   -4.2055   -1.3787 H   0  0  0  0  0  0
   -4.4334   -3.9498   -2.8593 H   0  0  0  0  0  0
   -5.6492   -6.0949    1.5064 H   0  0  0  0  0  0
   -0.2223   -6.5836    9.9729 H   0  0  0  0  0  0
   -4.7354   -9.4047    7.8069 H   0  0  0  0  0  0
    3.0407   -9.5520    0.8672 H   0  0  0  0  0  0
    6.6612   -9.2793    3.0685 H   0  0  0  0  0  0
  1  2  1  0  0  0
  2  3  1  0  0  0
  3  4  1  0  0  0
  4  5  1  0  0  0
  5  6  1  0  0  0
  5  7  1  0  0  0
  7  8  1  0  0  0
  7 39  1  0  0  0
  8  9  1  0  0  0
  8 27  1  0  0  0
  9 10  1  0  0  0
 10 11  1  0  0  0
 10 12  1  0  0  0
 12 13  1  0  0  0
 13 14  1  0  0  0
 13 26  1  0  0  0
 14 15  1  0  0  0
 15 16  1  0  0  0
 16 17  1  0  0  0
 17 18  1  0  0  0
 18 19  1  0  0  0
 18 25  1  0  0  0
 19 20  1  0  0  0
 20 21  1  0  0  0
 20 24  1  0  0  0
 21 22  1  0  0  0
 21 23  1  0  0  0
 23 51  1  0  0  0
 23 52  1  0  0  0
 24 53  1  0  0  0
 25 54  1  0  0  0
 26 55  1  0  0  0
 27 28  1  0  0  0
 28 29  2  0  0  0
 28 30  1  0  0  0
 30 31  1  0  0  0
 31 32  1  0  0  0
 31 36  1  0  0  0
 32 33  1  0  0  0
 33 34  2  0  0  0
 33 35  1  0  0  0
 35 56  1  0  0  0
 36 37  2  0  0  0
 36 38  1  0  0  0
 38 57  1  0  0  0
 39 40  1  0  0  0
 40 41  2  0  0  0
 40 42  1  0  0  0
 42 43  1  0  0  0
 43 44  1  0  0  0
 43 48  1  0  0  0
 44 45  1  0  0  0
 45 46  2  0  0  0
 45 47  1  0  0  0
 47 58  1  0  0  0
 48 49  2  0  0  0
 48 50  1  0  0  0
 50 59  1  0  0  0
M  END
>  <AUTHOR>
    GENERATED BY OPEN BABEL 2.4.1

>  <CHROM.1>
98.65999269,130.92884795,-170.63896976,-165.73899354,-18.86150060,162.59338040
-79.69304156,127.75704531,101.36049748,94.71340249,35.28950152,81.23666079
-174.41820584,99.15556308,-138.02594802,-145.92838976,-130.55602852,59.86980969
-72.99177132,-109.20887062,-69.83616240,-90.54294976,92.45741881,-6.18504610
-49.49926280,-156.64292911,-64.27979853,-0.42389142,-104.75981998,0.96889581
-98.79155156,35.56943120,113.05841681,6.77657322,-114.38693549,-2.05031696
13.65166767,-1.49854851,122.03960914,-1.48992735,-8.80210523,3.59908205,-0.71902637
0.53324571,-1.49621663

>  <COMPND>
    UNNAMED

>  <MASTER>
        0    0    0    0    0    0    0    0  109    0  109    0

>  <Name>
FB1.pdb

>  <RI>
0

>  <Rbt.Current_Directory>
/home/fc/tossine/F10/p3/0_clust01

>  <Rbt.Executable>
rbdock/0.1.0

>  <Rbt.Library>
librxdock.so/0.1.0

>  <Rbt.Parameter_File>
/cluster/rxdock/data/scripts/dock.prm

>  <Rbt.Receptor>
rx_3.prm

>  <SCORE>
84.4477

>  <SCORE.INTER>
15.969

>  <SCORE.INTER.CONST>
1

>  <SCORE.INTER.POLAR>
-1.76585

>  <SCORE.INTER.REPUL>
1.35225

>  <SCORE.INTER.ROT>
32

>  <SCORE.INTER.VDW>
-22.1883

>  <SCORE.INTER.norm>
0.319381

>  <SCORE.INTRA>
58.3454

>  <SCORE.INTRA.DIHEDRAL>
88.7446

>  <SCORE.INTRA.DIHEDRAL.0>
47.3121

>  <SCORE.INTRA.POLAR>
0.83408

>  <SCORE.INTRA.POLAR.0>
-1.47808

>  <SCORE.INTRA.REPUL>
0

>  <SCORE.INTRA.REPUL.0>
0

>  <SCORE.INTRA.VDW>
11.1372

>  <SCORE.INTRA.VDW.0>
-2.78316

>  <SCORE.INTRA.norm>
1.16691

>  <SCORE.RESTR>
10.1332

>  <SCORE.RESTR.CAVITY>
10.1332

>  <SCORE.RESTR.norm>
0.202664

>  <SCORE.SYSTEM>
0

>  <SCORE.SYSTEM.CONST>
0

>  <SCORE.SYSTEM.DIHEDRAL>
0

>  <SCORE.SYSTEM.norm>
0

>  <SCORE.heavy>
50

>  <SCORE.norm>
1.68895

$$$$
