FB1.pdb
  RxDock  10062017193D
librxdock.so/0.1.0
 59 58  0  0  0  0  0  0  0  0999 V2000
   -6.0951    0.6542    7.1180 C   0  0  0  0  0  0
   -7.5612    0.2280    7.1341 C   0  0  0  0  0  0
   -8.1340    0.2122    8.5609 C   0  0  0  0  0  0
   -9.6554   -0.0748    8.6125 C   0  0  0  0  0  0
  -10.0388   -1.5910    8.7331 C   0  0  0  0  0  0
   -8.7341   -2.4186    8.7915 C   0  0  0  0  0  0
  -10.9703   -1.9116    9.9771 C   0  0  0  0  0  0
  -12.3406   -1.0893   10.0886 C   0  0  0  0  0  0
  -13.7736   -1.6383    9.6722 C   0  0  0  0  0  0
  -14.0104   -1.8151    8.0493 C   0  0  0  0  0  0
  -14.2475   -0.4341    7.4404 C   0  0  0  0  0  0
  -12.8513   -2.5616    7.2468 C   0  0  0  0  0  0
  -12.9312   -2.9348    5.6742 C   0  0  0  0  0  0
  -14.2655   -3.3804    4.9833 C   0  0  0  0  0  0
  -14.1733   -4.2817    3.6687 C   0  0  0  0  0  0
  -15.4157   -4.6941    2.7850 C   0  0  0  0  0  0
  -15.2186   -5.6748    1.5989 C   0  0  0  0  0  0
  -13.7417   -6.1525    1.3164 C   0  0  0  0  0  0
  -13.1273   -7.1068    2.3480 C   0  0  0  0  0  0
  -12.3862   -8.3728    1.8317 C   0  0  0  0  0  0
  -13.1470   -9.4551    1.0101 C   0  0  0  0  0  0
  -14.5708   -9.7641    1.4512 C   0  0  0  0  0  0
  -13.0961   -9.1517   -0.4328 N   0  0  0  0  0  0
  -11.3706   -7.8624    0.9307 O   0  0  0  0  0  0
  -13.7219   -6.7928    0.0360 O   0  0  0  0  0  0
  -12.5366   -1.7342    4.9890 O   0  0  0  0  0  0
  -12.4860   -0.7300   11.4894 O   0  0  0  0  0  0
  -11.3483   -0.4431   12.1740 C   0  0  0  0  0  0
  -11.0295   -0.8905   13.2592 O   0  0  0  0  0  0
  -10.4903    0.4481   11.3191 C   0  0  0  0  0  0
  -10.1971    1.8016   11.9859 C   0  0  0  0  0  0
   -9.2115    2.6549   11.1774 C   0  0  0  0  0  0
   -8.5948    3.7354   12.0351 C   0  0  0  0  0  0
   -7.3858    3.9134   12.1365 O   0  0  0  0  0  0
   -9.4994    4.4882   12.6784 O   0  0  0  0  0  0
  -11.5489    2.5205   12.0935 C   0  0  0  0  0  0
  -12.0399    2.8618   13.1588 O   0  0  0  0  0  0
  -12.1741    2.7011   10.9220 O   0  0  0  0  0  0
  -11.1866   -3.3717   10.1219 O   0  0  0  0  0  0
  -10.8040   -3.9806   11.3055 C   0  0  0  0  0  0
  -10.7879   -3.4297   12.3985 O   0  0  0  0  0  0
  -10.3948   -5.4455   11.1028 C   0  0  0  0  0  0
  -11.5328   -6.4977   11.2823 C   0  0  0  0  0  0
  -11.6552   -7.2054   12.6442 C   0  0  0  0  0  0
  -10.4663   -6.9778   13.5325 C   0  0  0  0  0  0
   -9.4028   -7.5789   13.4692 O   0  0  0  0  0  0
  -10.6752   -6.0017   14.4292 O   0  0  0  0  0  0
  -12.9318   -5.9944   10.9061 C   0  0  0  0  0  0
  -13.3896   -4.9468   11.3181 O   0  0  0  0  0  0
  -13.5906   -6.7410    9.9951 O   0  0  0  0  0  0
  -13.6407   -8.3102   -0.6166 H   0  0  0  0  0  0
  -13.5810   -9.8953   -0.9402 H   0  0  0  0  0  0
  -11.8738   -7.3932    0.2322 H   0  0  0  0  0  0
  -13.9414   -6.1264   -0.6408 H   0  0  0  0  0  0
  -13.1400   -1.0218    5.2588 H   0  0  0  0  0  0
  -10.4054    4.4514   12.3161 H   0  0  0  0  0  0
  -11.6110    2.5316   10.1263 H   0  0  0  0  0  0
  -10.8478   -5.1828   13.9185 H   0  0  0  0  0  0
  -14.4086   -6.3347    9.6318 H   0  0  0  0  0  0
  1  2  1  0  0  0
  2  3  1  0  0  0
  3  4  1  0  0  0
  4  5  1  0  0  0
  5  6  1  0  0  0
  5  7  1  0  0  0
  7  8  1  0  0  0
  7 39  1  0  0  0
  8  9  1  0  0  0
  8 27  1  0  0  0
  9 10  1  0  0  0
 10 11  1  0  0  0
 10 12  1  0  0  0
 12 13  1  0  0  0
 13 14  1  0  0  0
 13 26  1  0  0  0
 14 15  1  0  0  0
 15 16  1  0  0  0
 16 17  1  0  0  0
 17 18  1  0  0  0
 18 19  1  0  0  0
 18 25  1  0  0  0
 19 20  1  0  0  0
 20 21  1  0  0  0
 20 24  1  0  0  0
 21 22  1  0  0  0
 21 23  1  0  0  0
 23 51  1  0  0  0
 23 52  1  0  0  0
 24 53  1  0  0  0
 25 54  1  0  0  0
 26 55  1  0  0  0
 27 28  1  0  0  0
 28 29  2  0  0  0
 28 30  1  0  0  0
 30 31  1  0  0  0
 31 32  1  0  0  0
 31 36  1  0  0  0
 32 33  1  0  0  0
 33 34  2  0  0  0
 33 35  1  0  0  0
 35 56  1  0  0  0
 36 37  2  0  0  0
 36 38  1  0  0  0
 38 57  1  0  0  0
 39 40  1  0  0  0
 40 41  2  0  0  0
 40 42  1  0  0  0
 42 43  1  0  0  0
 43 44  1  0  0  0
 43 48  1  0  0  0
 44 45  1  0  0  0
 45 46  2  0  0  0
 45 47  1  0  0  0
 47 58  1  0  0  0
 48 49  2  0  0  0
 48 50  1  0  0  0
 50 59  1  0  0  0
M  END
>  <AUTHOR>
    GENERATED BY OPEN BABEL 2.4.1

>  <CHROM.1>
174.15460105,90.29154885,0.87609458,55.54849922,100.49259873,121.19582846
-70.71038671,35.09799735,-76.36370451,175.31709220,-36.13642158,-154.94342399
-57.94227475,-173.94217597,-174.73470457,-2.62055476,70.47180958,133.36261561
64.46023799,-61.74006161,-38.59171129,-60.47163214,-67.73191556,-131.29975424
120.37483027,174.37401200,-161.20332824,119.57306933,127.31900297,-18.61404915
-12.63007879,29.65828389,-91.93592963,-96.99227062,-11.88918287,-49.73476948
-81.00226345,-60.88425473,-169.17117790,-11.62304988,-2.89886803,8.39029682
-0.20012026,-1.30477632,-0.88626203

>  <COMPND>
    UNNAMED

>  <MASTER>
        0    0    0    0    0    0    0    0  109    0  109    0

>  <Name>
FB1.pdb

>  <RI>
0

>  <Rbt.Current_Directory>
/home/fc/tossine/F10/p3/0_clust01

>  <Rbt.Executable>
rbdock/0.1.0

>  <Rbt.Library>
librxdock.so/0.1.0

>  <Rbt.Parameter_File>
/cluster/rxdock/data/scripts/dock.prm

>  <Rbt.Receptor>
rx_2.prm

>  <SCORE>
79.5728

>  <SCORE.INTER>
31.3203

>  <SCORE.INTER.CONST>
1

>  <SCORE.INTER.POLAR>
-1.47911

>  <SCORE.INTER.REPUL>
0.517004

>  <SCORE.INTER.ROT>
32

>  <SCORE.INTER.VDW>
-3.63572

>  <SCORE.INTER.norm>
0.626406

>  <SCORE.INTRA>
42.6233

>  <SCORE.INTRA.DIHEDRAL>
56.8918

>  <SCORE.INTRA.DIHEDRAL.0>
47.3121

>  <SCORE.INTRA.POLAR>
0.193752

>  <SCORE.INTRA.POLAR.0>
-1.47808

>  <SCORE.INTRA.REPUL>
0

>  <SCORE.INTRA.REPUL.0>
0

>  <SCORE.INTRA.VDW>
13.5187

>  <SCORE.INTRA.VDW.0>
-2.78316

>  <SCORE.INTRA.norm>
0.852467

>  <SCORE.RESTR>
5.62915

>  <SCORE.RESTR.CAVITY>
5.62915

>  <SCORE.RESTR.norm>
0.112583

>  <SCORE.SYSTEM>
0

>  <SCORE.SYSTEM.CONST>
0

>  <SCORE.SYSTEM.DIHEDRAL>
0

>  <SCORE.SYSTEM.norm>
0

>  <SCORE.heavy>
50

>  <SCORE.norm>
1.59146

$$$$
