FB1.pdb
  RxDock  10062016353D
librxdock.so/0.1.0
 59 58  0  0  0  0  0  0  0  0999 V2000
    1.6116  -13.3308    5.3373 C   0  0  0  0  0  0
    1.0358  -13.1280    6.7368 C   0  0  0  0  0  0
   -0.4082  -12.6021    6.6877 C   0  0  0  0  0  0
   -0.5134  -11.1292    6.2193 C   0  0  0  0  0  0
   -1.6736  -10.8391    5.2043 C   0  0  0  0  0  0
   -1.5225  -11.8039    4.0055 C   0  0  0  0  0  0
   -3.1202  -10.9539    5.8463 C   0  0  0  0  0  0
   -3.2091  -10.9214    7.4454 C   0  0  0  0  0  0
   -3.3305   -9.6047    8.3285 C   0  0  0  0  0  0
   -1.9236   -9.0971    9.0246 C   0  0  0  0  0  0
   -1.5220   -7.7658    8.3918 C   0  0  0  0  0  0
   -1.9377   -8.9517   10.6131 C   0  0  0  0  0  0
   -0.9256   -8.0033   11.4467 C   0  0  0  0  0  0
   -0.9597   -6.4401   11.3405 C   0  0  0  0  0  0
    0.3461   -5.6237   11.7617 C   0  0  0  0  0  0
    0.7528   -5.3063   13.2545 C   0  0  0  0  0  0
    0.3284   -6.2796   14.3859 C   0  0  0  0  0  0
    1.2006   -6.2565   15.7004 C   0  0  0  0  0  0
    1.1245   -4.9778   16.5440 C   0  0  0  0  0  0
    0.7911   -3.6394   15.8257 C   0  0  0  0  0  0
    0.1210   -2.4689   16.6044 C   0  0  0  0  0  0
   -0.2687   -1.2460   15.7858 C   0  0  0  0  0  0
   -1.0204   -2.9545   17.4030 N   0  0  0  0  0  0
    2.0770   -3.1201   15.4007 O   0  0  0  0  0  0
    0.8004   -7.3635   16.5155 O   0  0  0  0  0  0
   -1.2018   -8.2917   12.8276 O   0  0  0  0  0  0
   -4.3804  -11.7039    7.8033 O   0  0  0  0  0  0
   -4.1614  -12.9392    8.3243 C   0  0  0  0  0  0
   -3.2967  -13.2391    9.1253 O   0  0  0  0  0  0
   -5.2354  -13.8645    7.8227 C   0  0  0  0  0  0
   -6.0071  -14.5467    8.9636 C   0  0  0  0  0  0
   -6.3671  -13.5745   10.0944 C   0  0  0  0  0  0
   -5.5401  -13.8450   11.3298 C   0  0  0  0  0  0
   -5.8349  -14.6853   12.1727 O   0  0  0  0  0  0
   -4.4447  -13.0761   11.4184 O   0  0  0  0  0  0
   -7.2857  -15.1114    8.3294 C   0  0  0  0  0  0
   -7.5111  -16.3084    8.2355 O   0  0  0  0  0  0
   -8.1174  -14.1816    7.8397 O   0  0  0  0  0  0
   -4.0620   -9.9950    5.2191 O   0  0  0  0  0  0
   -3.9755   -9.7840    3.8531 C   0  0  0  0  0  0
   -4.7920  -10.1841    3.0336 O   0  0  0  0  0  0
   -2.7271   -8.9811    3.4643 C   0  0  0  0  0  0
   -2.9915   -7.6386    2.7145 C   0  0  0  0  0  0
   -3.8398   -7.6822    1.4304 C   0  0  0  0  0  0
   -3.0377   -7.4206    0.1883 C   0  0  0  0  0  0
   -2.4807   -8.2700   -0.4934 O   0  0  0  0  0  0
   -2.9990   -6.1184   -0.1328 O   0  0  0  0  0  0
   -3.5591   -6.5179    3.5944 C   0  0  0  0  0  0
   -4.7469   -6.3910    3.8175 O   0  0  0  0  0  0
   -2.6413   -5.7352    4.1995 O   0  0  0  0  0  0
   -1.5493   -3.6302   16.8533 H   0  0  0  0  0  0
   -1.6661   -2.1766   17.5565 H   0  0  0  0  0  0
    2.5962   -3.0393   16.2285 H   0  0  0  0  0  0
   -0.1705   -7.3430   16.6009 H   0  0  0  0  0  0
   -2.0386   -7.8576   13.0639 H   0  0  0  0  0  0
   -3.8682  -13.2590   12.1850 H   0  0  0  0  0  0
   -8.1048  -13.3217    8.3288 H   0  0  0  0  0  0
   -3.1882   -5.6200    0.6900 H   0  0  0  0  0  0
   -2.7450   -5.6422    5.1726 H   0  0  0  0  0  0
  1  2  1  0  0  0
  2  3  1  0  0  0
  3  4  1  0  0  0
  4  5  1  0  0  0
  5  6  1  0  0  0
  5  7  1  0  0  0
  7  8  1  0  0  0
  7 39  1  0  0  0
  8  9  1  0  0  0
  8 27  1  0  0  0
  9 10  1  0  0  0
 10 11  1  0  0  0
 10 12  1  0  0  0
 12 13  1  0  0  0
 13 14  1  0  0  0
 13 26  1  0  0  0
 14 15  1  0  0  0
 15 16  1  0  0  0
 16 17  1  0  0  0
 17 18  1  0  0  0
 18 19  1  0  0  0
 18 25  1  0  0  0
 19 20  1  0  0  0
 20 21  1  0  0  0
 20 24  1  0  0  0
 21 22  1  0  0  0
 21 23  1  0  0  0
 23 51  1  0  0  0
 23 52  1  0  0  0
 24 53  1  0  0  0
 25 54  1  0  0  0
 26 55  1  0  0  0
 27 28  1  0  0  0
 28 29  2  0  0  0
 28 30  1  0  0  0
 30 31  1  0  0  0
 31 32  1  0  0  0
 31 36  1  0  0  0
 32 33  1  0  0  0
 33 34  2  0  0  0
 33 35  1  0  0  0
 35 56  1  0  0  0
 36 37  2  0  0  0
 36 38  1  0  0  0
 38 57  1  0  0  0
 39 40  1  0  0  0
 40 41  2  0  0  0
 40 42  1  0  0  0
 42 43  1  0  0  0
 43 44  1  0  0  0
 43 48  1  0  0  0
 44 45  1  0  0  0
 45 46  2  0  0  0
 45 47  1  0  0  0
 47 58  1  0  0  0
 48 49  2  0  0  0
 48 50  1  0  0  0
 50 59  1  0  0  0
M  END
>  <AUTHOR>
    GENERATED BY OPEN BABEL 2.4.1

>  <CHROM.1>
-71.31821869,137.23063167,-54.66342470,16.94723687,87.93139047,38.84114464
-100.59317497,105.49133374,113.09584499,-156.95651017,66.65019716,-158.79223443
-75.43647141,-79.21980244,28.97186141,156.24926912,67.53541960,-27.40206974
-50.60662920,154.07695535,-175.10975295,-57.98745103,-41.46598785,40.45737582
-123.68402012,43.77946885,-108.48657415,113.43504131,-84.77940232,-177.17412200
-31.64328215,108.09467891,-121.01480199,-55.04109931,-109.65144713,-85.59934967
90.44170900,22.37586880,-127.11838213,-2.47370688,-9.25362405,8.65248458
-2.34981537,1.09646077,1.77812933

>  <COMPND>
    UNNAMED

>  <MASTER>
        0    0    0    0    0    0    0    0  109    0  109    0

>  <Name>
FB1.pdb

>  <RI>
0

>  <Rbt.Current_Directory>
/home/fc/tossine/F10/p3/0_clust01

>  <Rbt.Executable>
rbdock/0.1.0

>  <Rbt.Library>
librxdock.so/0.1.0

>  <Rbt.Parameter_File>
/cluster/rxdock/data/scripts/dock.prm

>  <Rbt.Receptor>
rx_1.prm

>  <SCORE>
55.2445

>  <SCORE.INTER>
-2.0043

>  <SCORE.INTER.CONST>
1

>  <SCORE.INTER.POLAR>
-3.74073

>  <SCORE.INTER.REPUL>
0.0650843

>  <SCORE.INTER.ROT>
32

>  <SCORE.INTER.VDW>
-27.0112

>  <SCORE.INTER.norm>
-0.040086

>  <SCORE.INTRA>
50.2554

>  <SCORE.INTRA.DIHEDRAL>
79.605

>  <SCORE.INTRA.DIHEDRAL.0>
47.3121

>  <SCORE.INTRA.POLAR>
1.47808

>  <SCORE.INTRA.POLAR.0>
-1.47808

>  <SCORE.INTRA.REPUL>
0

>  <SCORE.INTRA.REPUL.0>
0

>  <SCORE.INTRA.VDW>
5.42748

>  <SCORE.INTRA.VDW.0>
-2.78316

>  <SCORE.INTRA.norm>
1.00511

>  <SCORE.RESTR>
6.99334

>  <SCORE.RESTR.CAVITY>
6.99334

>  <SCORE.RESTR.norm>
0.139867

>  <SCORE.SYSTEM>
0

>  <SCORE.SYSTEM.CONST>
0

>  <SCORE.SYSTEM.DIHEDRAL>
0

>  <SCORE.SYSTEM.norm>
0

>  <SCORE.heavy>
50

>  <SCORE.norm>
1.10489

$$$$
