FB1.pdb
  RxDock  10062017233D
librxdock.so/0.1.0
 59 58  0  0  0  0  0  0  0  0999 V2000
  -10.4169   -7.0775   14.0469 C   0  0  0  0  0  0
  -10.3602   -5.7369   13.3183 C   0  0  0  0  0  0
  -11.1116   -5.7853   11.9777 C   0  0  0  0  0  0
  -12.6284   -6.0610   12.1295 C   0  0  0  0  0  0
  -13.5646   -4.9190   11.6005 C   0  0  0  0  0  0
  -13.7325   -3.8696   12.7235 C   0  0  0  0  0  0
  -13.0435   -4.2413   10.2637 C   0  0  0  0  0  0
  -12.0648   -2.9830   10.4218 C   0  0  0  0  0  0
  -10.5350   -3.0615   10.8480 C   0  0  0  0  0  0
   -9.4614   -3.1029    9.5961 C   0  0  0  0  0  0
   -9.7928   -4.3043    8.7124 C   0  0  0  0  0  0
   -9.3761   -1.7865    8.6992 C   0  0  0  0  0  0
   -9.4136   -0.2809    9.2912 C   0  0  0  0  0  0
   -9.2015    0.0291   10.8127 C   0  0  0  0  0  0
  -10.4908    0.2628   11.7249 C   0  0  0  0  0  0
  -10.7312    1.5478   12.6113 C   0  0  0  0  0  0
  -10.5060    2.9542   11.9960 C   0  0  0  0  0  0
   -9.2731    3.1098   11.0239 C   0  0  0  0  0  0
   -9.0773    4.4931   10.3909 C   0  0  0  0  0  0
   -8.6550    5.6725   11.3122 C   0  0  0  0  0  0
   -7.1628    5.8687   11.7127 C   0  0  0  0  0  0
   -6.6258    4.9462   12.7982 C   0  0  0  0  0  0
   -6.2917    5.8453   10.5223 N   0  0  0  0  0  0
   -9.0030    6.8658   10.5647 O   0  0  0  0  0  0
   -8.0891    2.7725   11.7547 O   0  0  0  0  0  0
   -8.3481    0.4084    8.6158 O   0  0  0  0  0  0
  -12.0446   -2.3190    9.1291 O   0  0  0  0  0  0
  -13.1762   -1.6691    8.7516 C   0  0  0  0  0  0
  -14.2435   -1.6851    9.3348 O   0  0  0  0  0  0
  -12.8649   -0.8368    7.5384 C   0  0  0  0  0  0
  -13.2979   -1.5162    6.2295 C   0  0  0  0  0  0
  -13.1387   -3.0413    6.2772 C   0  0  0  0  0  0
  -13.4062   -3.6598    4.9247 C   0  0  0  0  0  0
  -12.5761   -3.7043    4.0231 O   0  0  0  0  0  0
  -14.6442   -4.1608    4.8016 O   0  0  0  0  0  0
  -14.7749   -1.1482    6.0317 C   0  0  0  0  0  0
  -15.4518   -0.6169    6.8989 O   0  0  0  0  0  0
  -15.2788   -1.5032    4.8418 O   0  0  0  0  0  0
  -12.4977   -5.2539    9.3275 O   0  0  0  0  0  0
  -13.2914   -6.3387    8.9939 C   0  0  0  0  0  0
  -14.2049   -6.3089    8.1797 O   0  0  0  0  0  0
  -12.9005   -7.6069    9.7641 C   0  0  0  0  0  0
  -13.3787   -8.9538    9.1383 C   0  0  0  0  0  0
  -12.9594   -9.2680    7.6905 C   0  0  0  0  0  0
  -13.9936  -10.0545    6.9379 C   0  0  0  0  0  0
  -13.8011  -11.1135    6.3565 O   0  0  0  0  0  0
  -15.2047   -9.4783    6.9762 O   0  0  0  0  0  0
  -13.0632  -10.1960    9.9808 C   0  0  0  0  0  0
  -12.3371  -10.1662   10.9548 O   0  0  0  0  0  0
  -13.7322  -11.3158    9.6350 O   0  0  0  0  0  0
   -6.1949    4.8840   10.1981 H   0  0  0  0  0  0
   -5.3489    6.1252   10.8020 H   0  0  0  0  0  0
   -8.4442    6.8246    9.7601 H   0  0  0  0  0  0
   -7.4329    2.4207   11.1252 H   0  0  0  0  0  0
   -7.5059    0.1026    8.9922 H   0  0  0  0  0  0
  -14.8542   -4.5424    3.9276 H   0  0  0  0  0  0
  -16.2353   -1.2822    4.7190 H   0  0  0  0  0  0
  -15.8106  -10.0634    6.4744 H   0  0  0  0  0  0
  -14.4179  -11.1976    8.9407 H   0  0  0  0  0  0
  1  2  1  0  0  0
  2  3  1  0  0  0
  3  4  1  0  0  0
  4  5  1  0  0  0
  5  6  1  0  0  0
  5  7  1  0  0  0
  7  8  1  0  0  0
  7 39  1  0  0  0
  8  9  1  0  0  0
  8 27  1  0  0  0
  9 10  1  0  0  0
 10 11  1  0  0  0
 10 12  1  0  0  0
 12 13  1  0  0  0
 13 14  1  0  0  0
 13 26  1  0  0  0
 14 15  1  0  0  0
 15 16  1  0  0  0
 16 17  1  0  0  0
 17 18  1  0  0  0
 18 19  1  0  0  0
 18 25  1  0  0  0
 19 20  1  0  0  0
 20 21  1  0  0  0
 20 24  1  0  0  0
 21 22  1  0  0  0
 21 23  1  0  0  0
 23 51  1  0  0  0
 23 52  1  0  0  0
 24 53  1  0  0  0
 25 54  1  0  0  0
 26 55  1  0  0  0
 27 28  1  0  0  0
 28 29  2  0  0  0
 28 30  1  0  0  0
 30 31  1  0  0  0
 31 32  1  0  0  0
 31 36  1  0  0  0
 32 33  1  0  0  0
 33 34  2  0  0  0
 33 35  1  0  0  0
 35 56  1  0  0  0
 36 37  2  0  0  0
 36 38  1  0  0  0
 38 57  1  0  0  0
 39 40  1  0  0  0
 40 41  2  0  0  0
 40 42  1  0  0  0
 42 43  1  0  0  0
 43 44  1  0  0  0
 43 48  1  0  0  0
 44 45  1  0  0  0
 45 46  2  0  0  0
 45 47  1  0  0  0
 47 58  1  0  0  0
 48 49  2  0  0  0
 48 50  1  0  0  0
 50 59  1  0  0  0
M  END
>  <AUTHOR>
    GENERATED BY OPEN BABEL 2.4.1

>  <CHROM.1>
62.97702999,118.33395463,-84.95110024,-89.52026488,74.76291053,53.17186247
94.56734036,70.35550285,-57.64944227,40.71848857,14.69056580,-98.48375149
-74.17216257,-125.08239529,47.24015300,-39.00009185,178.47641193,68.60045858
151.19418763,81.56492315,-77.45911852,-62.86594567,-75.13970115,-6.87934513
99.08717873,-34.67625938,-172.87090223,-11.01790891,81.41070367,178.18267606
178.90145550,78.67068724,-160.07973080,56.58979810,-146.90431564,-10.11499365
-125.90652583,-179.20815403,-5.97616943,-11.70526749,-2.80038250,9.41119740
-2.29450994,-0.98371725,-0.43451435

>  <COMPND>
    UNNAMED

>  <MASTER>
        0    0    0    0    0    0    0    0  109    0  109    0

>  <Name>
FB1.pdb

>  <RI>
0

>  <Rbt.Current_Directory>
/home/fc/tossine/F10/p3/0_clust01

>  <Rbt.Executable>
rbdock/0.1.0

>  <Rbt.Library>
librxdock.so/0.1.0

>  <Rbt.Parameter_File>
/cluster/rxdock/data/scripts/dock.prm

>  <Rbt.Receptor>
rx_2.prm

>  <SCORE>
41.6097

>  <SCORE.INTER>
8.21526

>  <SCORE.INTER.CONST>
1

>  <SCORE.INTER.POLAR>
-1.24742

>  <SCORE.INTER.REPUL>
0.632018

>  <SCORE.INTER.ROT>
32

>  <SCORE.INTER.VDW>
-28.1036

>  <SCORE.INTER.norm>
0.164305

>  <SCORE.INTRA>
25.5685

>  <SCORE.INTRA.DIHEDRAL>
35.5247

>  <SCORE.INTRA.DIHEDRAL.0>
47.3121

>  <SCORE.INTRA.POLAR>
1.45945

>  <SCORE.INTRA.POLAR.0>
-1.47808

>  <SCORE.INTRA.REPUL>
0

>  <SCORE.INTRA.REPUL.0>
0

>  <SCORE.INTRA.VDW>
2.84405

>  <SCORE.INTRA.VDW.0>
-2.78316

>  <SCORE.INTRA.norm>
0.511371

>  <SCORE.RESTR>
7.82591

>  <SCORE.RESTR.CAVITY>
7.82591

>  <SCORE.RESTR.norm>
0.156518

>  <SCORE.SYSTEM>
0

>  <SCORE.SYSTEM.CONST>
0

>  <SCORE.SYSTEM.DIHEDRAL>
0

>  <SCORE.SYSTEM.norm>
0

>  <SCORE.heavy>
50

>  <SCORE.norm>
0.832194

$$$$
