FB1.pdb
  RxDock  10062018263D
librxdock.so/0.1.0
 59 58  0  0  0  0  0  0  0  0999 V2000
    1.5971    1.9707  -13.2436 C   0  0  0  0  0  0
    1.6669    0.9848  -12.0799 C   0  0  0  0  0  0
    1.2768   -0.4376  -12.5145 C   0  0  0  0  0  0
    1.5849   -1.5161  -11.4461 C   0  0  0  0  0  0
    3.0650   -1.5290  -10.9267 C   0  0  0  0  0  0
    3.2714   -0.2951  -10.0181 C   0  0  0  0  0  0
    3.4577   -2.8654  -10.1666 C   0  0  0  0  0  0
    3.4210   -2.8273   -8.5656 C   0  0  0  0  0  0
    2.3017   -2.1107   -7.6928 C   0  0  0  0  0  0
    2.8418   -1.4123   -6.2993 C   0  0  0  0  0  0
    2.7211   -2.4314   -5.1675 C   0  0  0  0  0  0
    4.3250   -0.8263   -6.3355 C   0  0  0  0  0  0
    4.7510    0.6049   -5.7119 C   0  0  0  0  0  0
    4.2722    1.9649   -6.3260 C   0  0  0  0  0  0
    2.9074    2.5983   -5.7919 C   0  0  0  0  0  0
    2.7340    3.2670   -4.3715 C   0  0  0  0  0  0
    3.5812    2.7549   -3.1768 C   0  0  0  0  0  0
    3.0127    3.0436   -1.7336 C   0  0  0  0  0  0
    3.0313    4.5075   -1.2764 C   0  0  0  0  0  0
    4.3073    5.3512   -1.5562 C   0  0  0  0  0  0
    5.7082    4.8399   -1.1074 C   0  0  0  0  0  0
    6.0140    3.3740   -1.3811 C   0  0  0  0  0  0
    6.7781    5.7089   -1.6335 N   0  0  0  0  0  0
    4.3834    5.4341   -3.0023 O   0  0  0  0  0  0
    1.6624    2.5700   -1.6879 O   0  0  0  0  0  0
    4.2299    0.5940   -4.3721 O   0  0  0  0  0  0
    3.3874   -4.2125   -8.1268 O   0  0  0  0  0  0
    4.5830   -4.8292   -7.9386 C   0  0  0  0  0  0
    4.8967   -5.5145   -6.9840 O   0  0  0  0  0  0
    5.4300   -4.6086   -9.1616 C   0  0  0  0  0  0
    6.6744   -3.7544   -8.8716 C   0  0  0  0  0  0
    6.3558   -2.5215   -8.0160 C   0  0  0  0  0  0
    6.4580   -1.2523   -8.8296 C   0  0  0  0  0  0
    5.6568   -0.3276   -8.7474 O   0  0  0  0  0  0
    7.5151   -1.2301   -9.6547 O   0  0  0  0  0  0
    7.6522   -4.6729   -8.1257 C   0  0  0  0  0  0
    7.3380   -5.3201   -7.1383 O   0  0  0  0  0  0
    8.8986   -4.6701   -8.6180 O   0  0  0  0  0  0
    2.7155   -4.0287  -10.7106 O   0  0  0  0  0  0
    1.5007   -4.3628  -10.1355 C   0  0  0  0  0  0
    1.1544   -4.0448   -9.0053 O   0  0  0  0  0  0
    0.6155   -5.1880  -11.0787 C   0  0  0  0  0  0
    1.0454   -6.6738  -11.2842 C   0  0  0  0  0  0
    1.8389   -7.3597  -10.1571 C   0  0  0  0  0  0
    3.3244   -7.3073  -10.3697 C   0  0  0  0  0  0
    3.9010   -7.5085  -11.4297 O   0  0  0  0  0  0
    3.9920   -6.9883   -9.2505 O   0  0  0  0  0  0
   -0.0968   -7.6200  -11.6745 C   0  0  0  0  0  0
   -0.8006   -8.1782  -10.8562 O   0  0  0  0  0  0
   -0.3447   -7.7140  -12.9978 O   0  0  0  0  0  0
    6.8890    6.5127   -1.0169 H   0  0  0  0  0  0
    6.4705    6.1020   -2.5258 H   0  0  0  0  0  0
    4.9084    4.6495   -3.2671 H   0  0  0  0  0  0
    1.0689    3.3434   -1.6798 H   0  0  0  0  0  0
    4.3912   -0.2865   -3.9938 H   0  0  0  0  0  0
    8.1620   -1.9495   -9.5225 H   0  0  0  0  0  0
    9.6098   -4.7400   -7.9339 H   0  0  0  0  0  0
    4.8996   -7.3450   -9.3530 H   0  0  0  0  0  0
   -1.1960   -8.1439  -13.2357 H   0  0  0  0  0  0
  1  2  1  0  0  0
  2  3  1  0  0  0
  3  4  1  0  0  0
  4  5  1  0  0  0
  5  6  1  0  0  0
  5  7  1  0  0  0
  7  8  1  0  0  0
  7 39  1  0  0  0
  8  9  1  0  0  0
  8 27  1  0  0  0
  9 10  1  0  0  0
 10 11  1  0  0  0
 10 12  1  0  0  0
 12 13  1  0  0  0
 13 14  1  0  0  0
 13 26  1  0  0  0
 14 15  1  0  0  0
 15 16  1  0  0  0
 16 17  1  0  0  0
 17 18  1  0  0  0
 18 19  1  0  0  0
 18 25  1  0  0  0
 19 20  1  0  0  0
 20 21  1  0  0  0
 20 24  1  0  0  0
 21 22  1  0  0  0
 21 23  1  0  0  0
 23 51  1  0  0  0
 23 52  1  0  0  0
 24 53  1  0  0  0
 25 54  1  0  0  0
 26 55  1  0  0  0
 27 28  1  0  0  0
 28 29  2  0  0  0
 28 30  1  0  0  0
 30 31  1  0  0  0
 31 32  1  0  0  0
 31 36  1  0  0  0
 32 33  1  0  0  0
 33 34  2  0  0  0
 33 35  1  0  0  0
 35 56  1  0  0  0
 36 37  2  0  0  0
 36 38  1  0  0  0
 38 57  1  0  0  0
 39 40  1  0  0  0
 40 41  2  0  0  0
 40 42  1  0  0  0
 42 43  1  0  0  0
 43 44  1  0  0  0
 43 48  1  0  0  0
 44 45  1  0  0  0
 45 46  2  0  0  0
 45 47  1  0  0  0
 47 58  1  0  0  0
 48 49  2  0  0  0
 48 50  1  0  0  0
 50 59  1  0  0  0
M  END
>  <AUTHOR>
    GENERATED BY OPEN BABEL 2.4.1

>  <CHROM.1>
169.17398361,-53.59565029,72.68306885,-99.03297310,40.83872939,-90.92193236
-144.47899030,88.69327503,-91.79933135,136.48863914,-68.42030363,90.03910385
41.60459350,72.54229442,-30.88719922,-157.53383080,-69.79308082,-43.66902236
-107.77846490,-52.89239647,44.36039264,-89.39052128,83.27309504,134.03743725
114.62257821,-45.27421482,-109.08392366,-51.61732928,138.23477767,-9.99861980
143.36924779,-21.82918860,73.84346427,26.49339781,-95.26083679,-87.23893745
-43.09422775,155.91791316,-166.20461193,3.67136390,-1.72989846,-7.71334690
1.76442053,0.61131729,-2.55695752

>  <COMPND>
    UNNAMED

>  <MASTER>
        0    0    0    0    0    0    0    0  109    0  109    0

>  <Name>
FB1.pdb

>  <RI>
0

>  <Rbt.Current_Directory>
/home/fc/tossine/F10/p3/0_clust01

>  <Rbt.Executable>
rbdock/0.1.0

>  <Rbt.Library>
librxdock.so/0.1.0

>  <Rbt.Parameter_File>
/cluster/rxdock/data/scripts/dock.prm

>  <Rbt.Receptor>
rx_4.prm

>  <SCORE>
117.678

>  <SCORE.INTER>
47.5259

>  <SCORE.INTER.CONST>
1

>  <SCORE.INTER.POLAR>
-0.819103

>  <SCORE.INTER.REPUL>
0.792844

>  <SCORE.INTER.ROT>
32

>  <SCORE.INTER.VDW>
8.94667

>  <SCORE.INTER.norm>
0.950519

>  <SCORE.INTRA>
53.6722

>  <SCORE.INTRA.DIHEDRAL>
58.117

>  <SCORE.INTRA.DIHEDRAL.0>
47.3121

>  <SCORE.INTRA.POLAR>
1.47808

>  <SCORE.INTRA.POLAR.0>
-1.47808

>  <SCORE.INTRA.REPUL>
0

>  <SCORE.INTRA.REPUL.0>
0

>  <SCORE.INTRA.VDW>
19.5882

>  <SCORE.INTRA.VDW.0>
-2.78316

>  <SCORE.INTRA.norm>
1.07344

>  <SCORE.RESTR>
16.4796

>  <SCORE.RESTR.CAVITY>
16.4796

>  <SCORE.RESTR.norm>
0.329592

>  <SCORE.SYSTEM>
0

>  <SCORE.SYSTEM.CONST>
0

>  <SCORE.SYSTEM.DIHEDRAL>
0

>  <SCORE.SYSTEM.norm>
0

>  <SCORE.heavy>
50

>  <SCORE.norm>
2.35355

$$$$
