FB1.pdb
  RxDock  10062015513D
librxdock.so/0.1.0
 59 58  0  0  0  0  0  0  0  0999 V2000
   -8.8170   -0.8040    9.7377 C   0  0  0  0  0  0
   -9.4949    0.2210   10.6439 C   0  0  0  0  0  0
  -10.9869   -0.0931   10.8424 C   0  0  0  0  0  0
  -11.2915   -0.8300   12.1706 C   0  0  0  0  0  0
  -12.3917   -1.9436   12.0720 C   0  0  0  0  0  0
  -13.6473   -1.3286   11.4118 C   0  0  0  0  0  0
  -11.9144   -3.2377   11.2875 C   0  0  0  0  0  0
  -11.3654   -4.4585   12.1676 C   0  0  0  0  0  0
  -11.8532   -4.8190   13.6374 C   0  0  0  0  0  0
  -10.7847   -4.4506   14.8390 C   0  0  0  0  0  0
  -10.4459   -2.9636   14.7478 C   0  0  0  0  0  0
  -11.2478   -4.8035   16.3242 C   0  0  0  0  0  0
  -12.4751   -5.7962   16.6805 C   0  0  0  0  0  0
  -12.6156   -7.2209   16.0427 C   0  0  0  0  0  0
  -12.2511   -8.4911   16.9388 C   0  0  0  0  0  0
  -11.6829   -9.8490   16.3662 C   0  0  0  0  0  0
  -12.4446  -10.5767   15.2270 C   0  0  0  0  0  0
  -12.2263  -12.1353   15.1157 C   0  0  0  0  0  0
  -10.7767  -12.6269   15.2132 C   0  0  0  0  0  0
  -10.5037  -14.1510   15.0687 C   0  0  0  0  0  0
  -11.3727  -15.0237   14.1155 C   0  0  0  0  0  0
  -12.7107  -15.4996   14.6639 C   0  0  0  0  0  0
  -11.5439  -14.3627   12.8077 N   0  0  0  0  0  0
   -9.1587  -14.2343   14.5323 O   0  0  0  0  0  0
  -12.9901  -12.7633   16.1510 O   0  0  0  0  0  0
  -12.3645   -6.0276   18.0950 O   0  0  0  0  0  0
  -11.6239   -5.6634   11.3970 O   0  0  0  0  0  0
  -10.5535   -6.4423   11.0923 C   0  0  0  0  0  0
   -9.3947   -6.2199   11.3875 O   0  0  0  0  0  0
  -11.0496   -7.6879   10.4112 C   0  0  0  0  0  0
  -12.5105   -7.5660    9.9491 C   0  0  0  0  0  0
  -12.9363   -8.7206    9.0332 C   0  0  0  0  0  0
  -14.3428   -8.5183    8.5191 C   0  0  0  0  0  0
  -15.3350   -9.0093    9.0466 O   0  0  0  0  0  0
  -14.4058   -7.7447    7.4253 O   0  0  0  0  0  0
  -13.3592   -7.5696   11.2280 C   0  0  0  0  0  0
  -12.9482   -7.9871   12.3000 O   0  0  0  0  0  0
  -14.6110   -7.1209   11.0622 O   0  0  0  0  0  0
  -12.9368   -3.6770   10.3070 O   0  0  0  0  0  0
  -12.7762   -3.3143    8.9801 C   0  0  0  0  0  0
  -13.1477   -3.9841    8.0252 O   0  0  0  0  0  0
  -12.0717   -1.9599    8.8262 C   0  0  0  0  0  0
  -11.7111   -1.5460    7.3657 C   0  0  0  0  0  0
  -12.7636   -1.7802    6.2667 C   0  0  0  0  0  0
  -12.1842   -1.7421    4.8820 C   0  0  0  0  0  0
  -12.0004   -0.7345    4.2130 O   0  0  0  0  0  0
  -11.8541   -2.9615    4.4300 O   0  0  0  0  0  0
  -11.2138   -0.1028    7.2163 C   0  0  0  0  0  0
  -11.6299    0.8129    7.8982 O   0  0  0  0  0  0
  -10.1981    0.0727    6.3451 O   0  0  0  0  0  0
  -10.7360  -13.7689   12.6253 H   0  0  0  0  0  0
  -12.3358  -13.7187   12.8685 H   0  0  0  0  0  0
   -9.2140  -13.7938   13.6581 H   0  0  0  0  0  0
  -13.9278  -12.5302   16.0213 H   0  0  0  0  0  0
  -11.4968   -6.4302   18.2670 H   0  0  0  0  0  0
  -13.5432   -7.4761    7.0548 H   0  0  0  0  0  0
  -14.7329   -6.5244   10.2825 H   0  0  0  0  0  0
  -11.4634   -2.8353    3.5397 H   0  0  0  0  0  0
   -9.9310   -0.7300    5.8446 H   0  0  0  0  0  0
  1  2  1  0  0  0
  2  3  1  0  0  0
  3  4  1  0  0  0
  4  5  1  0  0  0
  5  6  1  0  0  0
  5  7  1  0  0  0
  7  8  1  0  0  0
  7 39  1  0  0  0
  8  9  1  0  0  0
  8 27  1  0  0  0
  9 10  1  0  0  0
 10 11  1  0  0  0
 10 12  1  0  0  0
 12 13  1  0  0  0
 13 14  1  0  0  0
 13 26  1  0  0  0
 14 15  1  0  0  0
 15 16  1  0  0  0
 16 17  1  0  0  0
 17 18  1  0  0  0
 18 19  1  0  0  0
 18 25  1  0  0  0
 19 20  1  0  0  0
 20 21  1  0  0  0
 20 24  1  0  0  0
 21 22  1  0  0  0
 21 23  1  0  0  0
 23 51  1  0  0  0
 23 52  1  0  0  0
 24 53  1  0  0  0
 25 54  1  0  0  0
 26 55  1  0  0  0
 27 28  1  0  0  0
 28 29  2  0  0  0
 28 30  1  0  0  0
 30 31  1  0  0  0
 31 32  1  0  0  0
 31 36  1  0  0  0
 32 33  1  0  0  0
 33 34  2  0  0  0
 33 35  1  0  0  0
 35 56  1  0  0  0
 36 37  2  0  0  0
 36 38  1  0  0  0
 38 57  1  0  0  0
 39 40  1  0  0  0
 40 41  2  0  0  0
 40 42  1  0  0  0
 42 43  1  0  0  0
 43 44  1  0  0  0
 43 48  1  0  0  0
 44 45  1  0  0  0
 45 46  2  0  0  0
 45 47  1  0  0  0
 47 58  1  0  0  0
 48 49  2  0  0  0
 48 50  1  0  0  0
 50 59  1  0  0  0
M  END
>  <AUTHOR>
    GENERATED BY OPEN BABEL 2.4.1

>  <CHROM.1>
98.72187083,-141.34951490,-52.16162322,95.99486719,30.98314144,98.63571018
-106.30374819,122.27317244,56.13731249,15.80926924,49.66050501,104.35243428
-59.70355415,-149.94305076,-53.46869292,-154.81043351,-45.86838951,-178.28344914
59.68689329,34.15109721,-81.98555911,-62.57640240,28.47108182,-1.01307802
14.35411603,169.37282541,-175.94063079,-19.21210563,-95.14249147,5.10654822
-23.35291588,148.42568787,173.62410197,43.10925779,-162.64772747,-34.34618900
-84.97256504,-178.32880872,4.66783325,-11.94550209,-6.01858592,11.46637855
-1.49155189,1.37487839,2.48431183

>  <COMPND>
    UNNAMED

>  <MASTER>
        0    0    0    0    0    0    0    0  109    0  109    0

>  <Name>
FB1.pdb

>  <RI>
0

>  <Rbt.Current_Directory>
/home/fc/tossine/F10/p3/0_clust01

>  <Rbt.Executable>
rbdock/0.1.0

>  <Rbt.Library>
librxdock.so/0.1.0

>  <Rbt.Parameter_File>
/cluster/rxdock/data/scripts/dock.prm

>  <Rbt.Receptor>
rx_0.prm

>  <SCORE>
32.5556

>  <SCORE.INTER>
-2.46183

>  <SCORE.INTER.CONST>
1

>  <SCORE.INTER.POLAR>
-4.44503

>  <SCORE.INTER.REPUL>
0.351071

>  <SCORE.INTER.ROT>
32

>  <SCORE.INTER.VDW>
-26.5041

>  <SCORE.INTER.norm>
-0.0492366

>  <SCORE.INTRA>
27.1274

>  <SCORE.INTRA.DIHEDRAL>
31.3288

>  <SCORE.INTRA.DIHEDRAL.0>
47.3121

>  <SCORE.INTRA.POLAR>
1.47808

>  <SCORE.INTRA.POLAR.0>
-1.47808

>  <SCORE.INTRA.REPUL>
0.01278

>  <SCORE.INTRA.REPUL.0>
0

>  <SCORE.INTRA.VDW>
6.37366

>  <SCORE.INTRA.VDW.0>
-2.78316

>  <SCORE.INTRA.norm>
0.542548

>  <SCORE.RESTR>
7.89001

>  <SCORE.RESTR.CAVITY>
7.89001

>  <SCORE.RESTR.norm>
0.1578

>  <SCORE.SYSTEM>
0

>  <SCORE.SYSTEM.CONST>
0

>  <SCORE.SYSTEM.DIHEDRAL>
0

>  <SCORE.SYSTEM.norm>
0

>  <SCORE.heavy>
50

>  <SCORE.norm>
0.651112

$$$$
