FB1.pdb
  RxDock  10062018263D
librxdock.so/0.1.0
 59 58  0  0  0  0  0  0  0  0999 V2000
    6.0676   -5.2582   -9.1512 C   0  0  0  0  0  0
    6.7428   -4.0457   -8.5147 C   0  0  0  0  0  0
    6.5289   -2.7718   -9.3488 C   0  0  0  0  0  0
    6.8218   -1.4661   -8.5683 C   0  0  0  0  0  0
    5.7839   -1.1205   -7.4441 C   0  0  0  0  0  0
    6.4630   -0.1688   -6.4323 C   0  0  0  0  0  0
    4.4363   -0.4919   -7.9980 C   0  0  0  0  0  0
    4.2426   -0.4764   -9.5881 C   0  0  0  0  0  0
    4.0578   -1.7658  -10.5000 C   0  0  0  0  0  0
    3.4588   -3.0920   -9.7231 C   0  0  0  0  0  0
    2.1621   -2.6969   -9.0184 C   0  0  0  0  0  0
    3.2049   -4.3815  -10.6272 C   0  0  0  0  0  0
    2.3279   -5.6589  -10.1604 C   0  0  0  0  0  0
    1.7496   -6.6988  -11.1803 C   0  0  0  0  0  0
    0.9486   -7.9559  -10.6081 C   0  0  0  0  0  0
    1.4533   -8.8651   -9.4193 C   0  0  0  0  0  0
    0.4750   -9.8715   -8.7578 C   0  0  0  0  0  0
   -1.0613   -9.5235   -8.8456 C   0  0  0  0  0  0
   -1.4965   -8.2019   -8.2002 C   0  0  0  0  0  0
   -1.7007   -8.1660   -6.6590 C   0  0  0  0  0  0
   -3.0003   -8.7383   -6.0194 C   0  0  0  0  0  0
   -3.0394  -10.2436   -5.7959 C   0  0  0  0  0  0
   -3.3402   -8.0123   -4.7809 N   0  0  0  0  0  0
   -0.6283   -8.9850   -6.1269 O   0  0  0  0  0  0
   -1.4300   -9.4972  -10.2287 O   0  0  0  0  0  0
    3.2030   -6.4163   -9.3077 O   0  0  0  0  0  0
    3.0537    0.3193   -9.8449 O   0  0  0  0  0  0
    3.0302    1.0393  -10.9966 C   0  0  0  0  0  0
    3.5984    2.0961  -11.1961 O   0  0  0  0  0  0
    2.2628    0.2606  -12.0291 C   0  0  0  0  0  0
    0.7531    0.5450  -11.9813 C   0  0  0  0  0  0
   -0.0776   -0.5764  -12.6184 C   0  0  0  0  0  0
    0.5960   -1.9181  -12.4477 C   0  0  0  0  0  0
    1.6064   -2.0891  -11.7740 O   0  0  0  0  0  0
   -0.0192   -2.9124  -13.1048 O   0  0  0  0  0  0
    0.3967    0.6829  -10.4947 C   0  0  0  0  0  0
    0.0650   -0.2640   -9.7977 O   0  0  0  0  0  0
    0.4312    1.9402  -10.0321 O   0  0  0  0  0  0
    3.2555   -1.0578   -7.3013 O   0  0  0  0  0  0
    3.0938   -0.7875   -5.9526 C   0  0  0  0  0  0
    2.3071    0.0317   -5.4961 O   0  0  0  0  0  0
    4.0194   -1.6371   -5.0718 C   0  0  0  0  0  0
    3.6025   -1.7610   -3.5734 C   0  0  0  0  0  0
    3.9742   -0.6094   -2.6215 C   0  0  0  0  0  0
    3.4499    0.7214   -3.0782 C   0  0  0  0  0  0
    2.5624    1.3637   -2.5337 O   0  0  0  0  0  0
    4.0805    1.1731   -4.1730 O   0  0  0  0  0  0
    2.1179   -2.0734   -3.3483 C   0  0  0  0  0  0
    1.4178   -1.4379   -2.5849 O   0  0  0  0  0  0
    1.6032   -3.0400   -4.1369 O   0  0  0  0  0  0
   -2.8296   -8.4245   -4.0012 H   0  0  0  0  0  0
   -4.3263   -8.1764   -4.5662 H   0  0  0  0  0  0
   -0.6647   -8.8399   -5.1579 H   0  0  0  0  0  0
   -1.8514   -8.6380  -10.4149 H   0  0  0  0  0  0
    2.9866   -6.1988   -8.3855 H   0  0  0  0  0  0
   -0.9916   -2.8392  -13.1554 H   0  0  0  0  0  0
    0.2763    2.0233   -9.0585 H   0  0  0  0  0  0
    3.8210    2.1126   -4.2797 H   0  0  0  0  0  0
    0.9623   -3.6425   -3.6983 H   0  0  0  0  0  0
  1  2  1  0  0  0
  2  3  1  0  0  0
  3  4  1  0  0  0
  4  5  1  0  0  0
  5  6  1  0  0  0
  5  7  1  0  0  0
  7  8  1  0  0  0
  7 39  1  0  0  0
  8  9  1  0  0  0
  8 27  1  0  0  0
  9 10  1  0  0  0
 10 11  1  0  0  0
 10 12  1  0  0  0
 12 13  1  0  0  0
 13 14  1  0  0  0
 13 26  1  0  0  0
 14 15  1  0  0  0
 15 16  1  0  0  0
 16 17  1  0  0  0
 17 18  1  0  0  0
 18 19  1  0  0  0
 18 25  1  0  0  0
 19 20  1  0  0  0
 20 21  1  0  0  0
 20 24  1  0  0  0
 21 22  1  0  0  0
 21 23  1  0  0  0
 23 51  1  0  0  0
 23 52  1  0  0  0
 24 53  1  0  0  0
 25 54  1  0  0  0
 26 55  1  0  0  0
 27 28  1  0  0  0
 28 29  2  0  0  0
 28 30  1  0  0  0
 30 31  1  0  0  0
 31 32  1  0  0  0
 31 36  1  0  0  0
 32 33  1  0  0  0
 33 34  2  0  0  0
 33 35  1  0  0  0
 35 56  1  0  0  0
 36 37  2  0  0  0
 36 38  1  0  0  0
 38 57  1  0  0  0
 39 40  1  0  0  0
 40 41  2  0  0  0
 40 42  1  0  0  0
 42 43  1  0  0  0
 43 44  1  0  0  0
 43 48  1  0  0  0
 44 45  1  0  0  0
 45 46  2  0  0  0
 45 47  1  0  0  0
 47 58  1  0  0  0
 48 49  2  0  0  0
 48 50  1  0  0  0
 50 59  1  0  0  0
M  END
>  <AUTHOR>
    GENERATED BY OPEN BABEL 2.4.1

>  <CHROM.1>
163.15577400,-70.15638700,158.16721136,7.72513037,67.15943703,65.87519841
24.23001744,147.54757273,53.55350910,-165.67018960,161.64100254,177.51371694
98.65107555,-47.40093964,167.57952220,-25.85569915,-60.18675954,-80.36031662
-125.88198255,-78.74797647,82.54547536,170.72416397,-85.32381877,-78.27240207
87.84667568,-158.37624200,31.15019911,-89.35992612,6.54408278,-34.16957294
-175.12518150,102.84335938,-160.57939013,-81.49560440,56.14114468,-129.89738064
110.74284232,-167.76656903,141.39472565,2.07184137,-3.10674227,-8.15899238
3.11756747,1.09792356,1.65566470

>  <COMPND>
    UNNAMED

>  <MASTER>
        0    0    0    0    0    0    0    0  109    0  109    0

>  <Name>
FB1.pdb

>  <RI>
0

>  <Rbt.Current_Directory>
/home/fc/tossine/F10/p3/0_clust01

>  <Rbt.Executable>
rbdock/0.1.0

>  <Rbt.Library>
librxdock.so/0.1.0

>  <Rbt.Parameter_File>
/cluster/rxdock/data/scripts/dock.prm

>  <Rbt.Receptor>
rx_4.prm

>  <SCORE>
165.77

>  <SCORE.INTER>
97.0851

>  <SCORE.INTER.CONST>
1

>  <SCORE.INTER.POLAR>
-0.771421

>  <SCORE.INTER.REPUL>
1.85989

>  <SCORE.INTER.ROT>
32

>  <SCORE.INTER.VDW>
53.0085

>  <SCORE.INTER.norm>
1.9417

>  <SCORE.INTRA>
53.3034

>  <SCORE.INTRA.DIHEDRAL>
73.1564

>  <SCORE.INTRA.DIHEDRAL.0>
47.3121

>  <SCORE.INTRA.POLAR>
1.47808

>  <SCORE.INTRA.POLAR.0>
-1.47808

>  <SCORE.INTRA.REPUL>
0

>  <SCORE.INTRA.REPUL.0>
0

>  <SCORE.INTRA.VDW>
11.6997

>  <SCORE.INTRA.VDW.0>
-2.78316

>  <SCORE.INTRA.norm>
1.06607

>  <SCORE.RESTR>
15.3818

>  <SCORE.RESTR.CAVITY>
15.3818

>  <SCORE.RESTR.norm>
0.307635

>  <SCORE.SYSTEM>
0

>  <SCORE.SYSTEM.CONST>
0

>  <SCORE.SYSTEM.DIHEDRAL>
0

>  <SCORE.SYSTEM.norm>
0

>  <SCORE.heavy>
50

>  <SCORE.norm>
3.31541

$$$$
