FB1.pdb
  RxDock  10062015553D
librxdock.so/0.1.0
 59 58  0  0  0  0  0  0  0  0999 V2000
   -9.2341   -2.2097   15.5699 C   0  0  0  0  0  0
  -10.5590   -2.8535   15.1682 C   0  0  0  0  0  0
  -10.7866   -2.7875   13.6489 C   0  0  0  0  0  0
  -12.0096   -3.6098   13.1714 C   0  0  0  0  0  0
  -11.7869   -4.4171   11.8451 C   0  0  0  0  0  0
  -11.1967   -5.7985   12.2109 C   0  0  0  0  0  0
  -13.1022   -4.5751   10.9716 C   0  0  0  0  0  0
  -14.3416   -5.3252   11.6553 C   0  0  0  0  0  0
  -14.8774   -6.7657   11.2475 C   0  0  0  0  0  0
  -13.7263   -7.9451   11.1736 C   0  0  0  0  0  0
  -13.5169   -8.5072   12.5787 C   0  0  0  0  0  0
  -14.0089   -9.1405   10.1558 C   0  0  0  0  0  0
  -13.0538  -10.4363    9.9900 C   0  0  0  0  0  0
  -13.2020  -11.4421    8.7974 C   0  0  0  0  0  0
  -12.4218  -12.8328    8.8781 C   0  0  0  0  0  0
  -10.8517  -12.9774    8.7872 C   0  0  0  0  0  0
  -10.0374  -13.2926   10.0698 C   0  0  0  0  0  0
   -8.8487  -14.3186    9.9165 C   0  0  0  0  0  0
   -7.4333  -13.7289    9.9524 C   0  0  0  0  0  0
   -6.2724  -14.5599    9.3361 C   0  0  0  0  0  0
   -5.0499  -13.8491    8.6836 C   0  0  0  0  0  0
   -4.0053  -13.2860    9.6371 C   0  0  0  0  0  0
   -4.4229  -14.7118    7.6642 N   0  0  0  0  0  0
   -5.7217  -15.3057   10.4516 O   0  0  0  0  0  0
   -8.9641  -15.2880   10.9638 O   0  0  0  0  0  0
  -11.7247   -9.9024    9.8678 O   0  0  0  0  0  0
  -14.0136   -5.4494   13.0658 O   0  0  0  0  0  0
  -15.0333   -5.7475   13.9123 C   0  0  0  0  0  0
  -16.1767   -5.3404   13.8328 O   0  0  0  0  0  0
  -14.5402   -6.7529   14.9161 C   0  0  0  0  0  0
  -14.1915   -6.1134   16.2696 C   0  0  0  0  0  0
  -12.9519   -5.2129   16.1933 C   0  0  0  0  0  0
  -11.6895   -6.0331   16.0631 C   0  0  0  0  0  0
  -11.4921   -7.0763   16.6767 O   0  0  0  0  0  0
  -10.7991   -5.5112   15.2066 O   0  0  0  0  0  0
  -15.4188   -5.2847   16.6732 C   0  0  0  0  0  0
  -15.8329   -4.3423   16.0153 O   0  0  0  0  0  0
  -15.9734   -5.6489   17.8376 O   0  0  0  0  0  0
  -13.5023   -3.2811   10.3673 O   0  0  0  0  0  0
  -12.6740   -2.7156    9.4122 C   0  0  0  0  0  0
  -11.5127   -3.0474    9.2131 O   0  0  0  0  0  0
  -13.3748   -1.6091    8.6129 C   0  0  0  0  0  0
  -13.2185   -1.6907    7.0626 C   0  0  0  0  0  0
  -13.0445   -3.0814    6.4254 C   0  0  0  0  0  0
  -12.5990   -3.0187    4.9928 C   0  0  0  0  0  0
  -11.7918   -2.2241    4.5308 O   0  0  0  0  0  0
  -13.1752   -3.9637    4.2344 O   0  0  0  0  0  0
  -14.3137   -0.9642    6.2721 C   0  0  0  0  0  0
  -15.3590   -0.6003    6.7738 O   0  0  0  0  0  0
  -13.9994   -0.6550    4.9966 O   0  0  0  0  0  0
   -3.4628  -14.4059    7.5125 H   0  0  0  0  0  0
   -4.8936  -14.5558    6.7700 H   0  0  0  0  0  0
   -6.4781  -15.8234   10.7996 H   0  0  0  0  0  0
   -8.5684  -14.9119   11.7715 H   0  0  0  0  0  0
  -11.3691   -9.7728   10.7629 H   0  0  0  0  0  0
   -9.9012   -5.8917   15.2557 H   0  0  0  0  0  0
  -16.7930   -5.1484   18.0756 H   0  0  0  0  0  0
  -14.0039   -4.2233    4.6897 H   0  0  0  0  0  0
  -14.5889    0.0038    4.5670 H   0  0  0  0  0  0
  1  2  1  0  0  0
  2  3  1  0  0  0
  3  4  1  0  0  0
  4  5  1  0  0  0
  5  6  1  0  0  0
  5  7  1  0  0  0
  7  8  1  0  0  0
  7 39  1  0  0  0
  8  9  1  0  0  0
  8 27  1  0  0  0
  9 10  1  0  0  0
 10 11  1  0  0  0
 10 12  1  0  0  0
 12 13  1  0  0  0
 13 14  1  0  0  0
 13 26  1  0  0  0
 14 15  1  0  0  0
 15 16  1  0  0  0
 16 17  1  0  0  0
 17 18  1  0  0  0
 18 19  1  0  0  0
 18 25  1  0  0  0
 19 20  1  0  0  0
 20 21  1  0  0  0
 20 24  1  0  0  0
 21 22  1  0  0  0
 21 23  1  0  0  0
 23 51  1  0  0  0
 23 52  1  0  0  0
 24 53  1  0  0  0
 25 54  1  0  0  0
 26 55  1  0  0  0
 27 28  1  0  0  0
 28 29  2  0  0  0
 28 30  1  0  0  0
 30 31  1  0  0  0
 31 32  1  0  0  0
 31 36  1  0  0  0
 32 33  1  0  0  0
 33 34  2  0  0  0
 33 35  1  0  0  0
 35 56  1  0  0  0
 36 37  2  0  0  0
 36 38  1  0  0  0
 38 57  1  0  0  0
 39 40  1  0  0  0
 40 41  2  0  0  0
 40 42  1  0  0  0
 42 43  1  0  0  0
 43 44  1  0  0  0
 43 48  1  0  0  0
 44 45  1  0  0  0
 45 46  2  0  0  0
 45 47  1  0  0  0
 47 58  1  0  0  0
 48 49  2  0  0  0
 48 50  1  0  0  0
 50 59  1  0  0  0
M  END
>  <AUTHOR>
    GENERATED BY OPEN BABEL 2.4.1

>  <CHROM.1>
171.40667177,-138.64948507,87.83843999,-59.85831555,-110.05764491,66.38185510
50.79319924,164.06419630,84.42970130,-176.38393429,-167.59121400,-167.80315965
85.96015612,-69.20994588,105.97021792,139.72420985,106.47569555,-159.31640007
-82.25113159,148.87403105,78.04394876,57.84838810,-158.65278316,-37.13229896
100.90015124,-68.82279872,-73.08595769,-61.83095037,-40.17048659,166.15724318
-176.86029021,-15.53003800,-132.10541702,29.62281211,-167.05257246,-14.87141996
38.68679106,23.03613687,-164.71153490,-11.92824721,-6.92497015,11.03203965
2.92425616,1.04796324,-1.20136952

>  <COMPND>
    UNNAMED

>  <MASTER>
        0    0    0    0    0    0    0    0  109    0  109    0

>  <Name>
FB1.pdb

>  <RI>
0

>  <Rbt.Current_Directory>
/home/fc/tossine/F10/p3/0_clust01

>  <Rbt.Executable>
rbdock/0.1.0

>  <Rbt.Library>
librxdock.so/0.1.0

>  <Rbt.Parameter_File>
/cluster/rxdock/data/scripts/dock.prm

>  <Rbt.Receptor>
rx_0.prm

>  <SCORE>
45.2837

>  <SCORE.INTER>
14.8698

>  <SCORE.INTER.CONST>
1

>  <SCORE.INTER.POLAR>
-3.17745

>  <SCORE.INTER.REPUL>
0.411514

>  <SCORE.INTER.ROT>
32

>  <SCORE.INTER.VDW>
-13.7845

>  <SCORE.INTER.norm>
0.297396

>  <SCORE.INTRA>
25.1161

>  <SCORE.INTRA.DIHEDRAL>
35.0007

>  <SCORE.INTRA.DIHEDRAL.0>
47.3121

>  <SCORE.INTRA.POLAR>
1.47808

>  <SCORE.INTRA.POLAR.0>
-1.47808

>  <SCORE.INTRA.REPUL>
0

>  <SCORE.INTRA.REPUL.0>
0

>  <SCORE.INTRA.VDW>
2.59025

>  <SCORE.INTRA.VDW.0>
-2.78316

>  <SCORE.INTRA.norm>
0.502322

>  <SCORE.RESTR>
5.29781

>  <SCORE.RESTR.CAVITY>
5.29781

>  <SCORE.RESTR.norm>
0.105956

>  <SCORE.SYSTEM>
0

>  <SCORE.SYSTEM.CONST>
0

>  <SCORE.SYSTEM.DIHEDRAL>
0

>  <SCORE.SYSTEM.norm>
0

>  <SCORE.heavy>
50

>  <SCORE.norm>
0.905674

$$$$
