FB1.pdb
  RxDock  10062016453D
librxdock.so/0.1.0
 59 58  0  0  0  0  0  0  0  0999 V2000
   -9.7853    0.0843    8.0453 C   0  0  0  0  0  0
  -10.4550   -0.2780    6.7217 C   0  0  0  0  0  0
  -11.4650   -1.4250    6.8899 C   0  0  0  0  0  0
  -12.5675   -1.4415    5.8018 C   0  0  0  0  0  0
  -13.8184   -2.3251    6.1408 C   0  0  0  0  0  0
  -14.8609   -2.1435    5.0134 C   0  0  0  0  0  0
  -13.4718   -3.8591    6.3515 C   0  0  0  0  0  0
  -12.8440   -4.2736    7.7658 C   0  0  0  0  0  0
  -13.4371   -3.8683    9.1843 C   0  0  0  0  0  0
  -12.9384   -2.4045    9.7586 C   0  0  0  0  0  0
  -13.7900   -2.0449   10.9750 C   0  0  0  0  0  0
  -11.3925   -2.2860   10.1340 C   0  0  0  0  0  0
  -10.7123   -0.9637   10.7723 C   0  0  0  0  0  0
  -11.2537   -0.2875   12.0784 C   0  0  0  0  0  0
  -10.7334    1.1768   12.4447 C   0  0  0  0  0  0
   -9.2644    1.6911   12.1757 C   0  0  0  0  0  0
   -8.9257    2.3617   10.8181 C   0  0  0  0  0  0
   -9.7291    3.6709   10.4580 C   0  0  0  0  0  0
   -8.8969    4.9415   10.2443 C   0  0  0  0  0  0
   -7.4765    5.0071   10.8740 C   0  0  0  0  0  0
   -6.2269    4.5662   10.0557 C   0  0  0  0  0  0
   -4.8701    4.8561   10.6819 C   0  0  0  0  0  0
   -6.3323    3.1494    9.6581 N   0  0  0  0  0  0
   -7.2637    6.4141   11.1553 O   0  0  0  0  0  0
  -10.4810    3.4142    9.2670 O   0  0  0  0  0  0
   -9.3644   -1.3550   11.0834 O   0  0  0  0  0  0
  -12.8178   -5.7266    7.7886 O   0  0  0  0  0  0
  -12.9569   -6.3272    8.9991 C   0  0  0  0  0  0
  -13.9720   -6.3716    9.6677 O   0  0  0  0  0  0
  -11.6668   -7.0224    9.3366 C   0  0  0  0  0  0
  -10.6167   -6.0657    9.9235 C   0  0  0  0  0  0
   -9.5855   -6.7891   10.7992 C   0  0  0  0  0  0
  -10.0413   -6.8526   12.2385 C   0  0  0  0  0  0
   -9.4443   -7.4721   13.1123 O   0  0  0  0  0  0
  -11.1667   -6.1620   12.4735 O   0  0  0  0  0  0
   -9.9200   -5.4147    8.7207 C   0  0  0  0  0  0
   -9.9957   -4.2210    8.4719 O   0  0  0  0  0  0
   -9.2588   -6.2738    7.9330 O   0  0  0  0  0  0
  -14.6186   -4.7232    5.9795 O   0  0  0  0  0  0
  -14.4348   -5.6708    4.9864 C   0  0  0  0  0  0
  -14.6857   -6.8629    5.1064 O   0  0  0  0  0  0
  -13.8742   -5.0615    3.6946 C   0  0  0  0  0  0
  -14.8881   -4.9194    2.5171 C   0  0  0  0  0  0
  -15.0731   -3.5273    1.8860 C   0  0  0  0  0  0
  -16.3330   -2.8436    2.3326 C   0  0  0  0  0  0
  -16.9038   -1.9398    1.7377 O   0  0  0  0  0  0
  -16.8092   -3.3452    3.4824 O   0  0  0  0  0  0
  -14.6744   -5.9128    1.3683 C   0  0  0  0  0  0
  -15.0115   -7.0785    1.4321 O   0  0  0  0  0  0
  -14.1804   -5.3838    0.2292 O   0  0  0  0  0  0
   -5.4175    2.8188    9.3541 H   0  0  0  0  0  0
   -6.9246    3.0866    8.8270 H   0  0  0  0  0  0
   -7.8474    6.6037   11.9200 H   0  0  0  0  0  0
   -9.8564    3.3469    8.5215 H   0  0  0  0  0  0
   -9.4038   -2.1165   11.6859 H   0  0  0  0  0  0
  -11.4458   -6.1259   13.4086 H   0  0  0  0  0  0
   -9.5087   -7.2225    8.0603 H   0  0  0  0  0  0
  -17.7571   -3.0983    3.5259 H   0  0  0  0  0  0
  -13.7366   -4.5124    0.3292 H   0  0  0  0  0  0
  1  2  1  0  0  0
  2  3  1  0  0  0
  3  4  1  0  0  0
  4  5  1  0  0  0
  5  6  1  0  0  0
  5  7  1  0  0  0
  7  8  1  0  0  0
  7 39  1  0  0  0
  8  9  1  0  0  0
  8 27  1  0  0  0
  9 10  1  0  0  0
 10 11  1  0  0  0
 10 12  1  0  0  0
 12 13  1  0  0  0
 13 14  1  0  0  0
 13 26  1  0  0  0
 14 15  1  0  0  0
 15 16  1  0  0  0
 16 17  1  0  0  0
 17 18  1  0  0  0
 18 19  1  0  0  0
 18 25  1  0  0  0
 19 20  1  0  0  0
 20 21  1  0  0  0
 20 24  1  0  0  0
 21 22  1  0  0  0
 21 23  1  0  0  0
 23 51  1  0  0  0
 23 52  1  0  0  0
 24 53  1  0  0  0
 25 54  1  0  0  0
 26 55  1  0  0  0
 27 28  1  0  0  0
 28 29  2  0  0  0
 28 30  1  0  0  0
 30 31  1  0  0  0
 31 32  1  0  0  0
 31 36  1  0  0  0
 32 33  1  0  0  0
 33 34  2  0  0  0
 33 35  1  0  0  0
 35 56  1  0  0  0
 36 37  2  0  0  0
 36 38  1  0  0  0
 38 57  1  0  0  0
 39 40  1  0  0  0
 40 41  2  0  0  0
 40 42  1  0  0  0
 42 43  1  0  0  0
 43 44  1  0  0  0
 43 48  1  0  0  0
 44 45  1  0  0  0
 45 46  2  0  0  0
 45 47  1  0  0  0
 47 58  1  0  0  0
 48 49  2  0  0  0
 48 50  1  0  0  0
 50 59  1  0  0  0
M  END
>  <AUTHOR>
    GENERATED BY OPEN BABEL 2.4.1

>  <CHROM.1>
155.61661225,-164.06484755,175.59656420,78.94044433,49.85057720,121.08335439
-86.30107450,-149.10083625,169.19955423,-177.23335480,54.35908905,-166.50495068
-57.60853751,-35.88963745,89.16512369,60.36495704,119.94151352,-21.88071696
-70.25958858,92.49703308,171.39734331,72.37156817,-164.83420165,70.61518017
81.70331336,155.42023521,-89.54060576,114.81064925,173.94507852,-175.31464477
16.86239501,126.52151970,-105.84305679,125.01356050,-102.70277868,76.93030691
-158.47099343,-159.54980685,19.31870204,-11.69391592,-2.38063447,7.97422601
0.35056022,-0.99133855,-0.45645412

>  <COMPND>
    UNNAMED

>  <MASTER>
        0    0    0    0    0    0    0    0  109    0  109    0

>  <Name>
FB1.pdb

>  <RI>
0

>  <Rbt.Current_Directory>
/home/fc/tossine/F10/p3/0_clust01

>  <Rbt.Executable>
rbdock/0.1.0

>  <Rbt.Library>
librxdock.so/0.1.0

>  <Rbt.Parameter_File>
/cluster/rxdock/data/scripts/dock.prm

>  <Rbt.Receptor>
rx_1.prm

>  <SCORE>
87.3605

>  <SCORE.INTER>
34.3854

>  <SCORE.INTER.CONST>
1

>  <SCORE.INTER.POLAR>
-2.30578

>  <SCORE.INTER.REPUL>
1.05887

>  <SCORE.INTER.ROT>
32

>  <SCORE.INTER.VDW>
-0.469283

>  <SCORE.INTER.norm>
0.687709

>  <SCORE.INTRA>
43.4688

>  <SCORE.INTRA.DIHEDRAL>
60.4037

>  <SCORE.INTRA.DIHEDRAL.0>
47.3121

>  <SCORE.INTRA.POLAR>
1.47808

>  <SCORE.INTRA.POLAR.0>
-1.47808

>  <SCORE.INTRA.REPUL>
0

>  <SCORE.INTRA.REPUL.0>
0

>  <SCORE.INTRA.VDW>
8.24148

>  <SCORE.INTRA.VDW.0>
-2.78316

>  <SCORE.INTRA.norm>
0.869376

>  <SCORE.RESTR>
9.50625

>  <SCORE.RESTR.CAVITY>
9.50625

>  <SCORE.RESTR.norm>
0.190125

>  <SCORE.SYSTEM>
0

>  <SCORE.SYSTEM.CONST>
0

>  <SCORE.SYSTEM.DIHEDRAL>
0

>  <SCORE.SYSTEM.norm>
0

>  <SCORE.heavy>
50

>  <SCORE.norm>
1.74721

$$$$
