FB1.pdb
  RxDock  10062017153D
librxdock.so/0.1.0
 59 58  0  0  0  0  0  0  0  0999 V2000
    6.6219   -1.4060   -8.2897 C   0  0  0  0  0  0
    7.5219   -2.6293   -8.1314 C   0  0  0  0  0  0
    7.3660   -3.6068   -9.3080 C   0  0  0  0  0  0
    5.9807   -4.2986   -9.3568 C   0  0  0  0  0  0
    4.8231   -3.4202   -9.9472 C   0  0  0  0  0  0
    4.6433   -3.7917  -11.4373 C   0  0  0  0  0  0
    3.4541   -3.5628   -9.1577 C   0  0  0  0  0  0
    2.7639   -5.0085   -9.1572 C   0  0  0  0  0  0
    1.2528   -5.3011   -9.5562 C   0  0  0  0  0  0
    1.0140   -6.6823  -10.4261 C   0  0  0  0  0  0
    0.3926   -7.7329   -9.5073 C   0  0  0  0  0  0
    0.1314   -6.5375  -11.7470 C   0  0  0  0  0  0
   -1.4841   -6.6278  -11.7736 C   0  0  0  0  0  0
   -2.3214   -6.3242  -13.0630 C   0  0  0  0  0  0
   -3.9118   -6.2623  -12.9362 C   0  0  0  0  0  0
   -4.6974   -5.1429  -12.1461 C   0  0  0  0  0  0
   -4.5455   -3.6581  -12.5703 C   0  0  0  0  0  0
   -5.8241   -2.7464  -12.4175 C   0  0  0  0  0  0
   -7.0974   -3.2394  -13.1161 C   0  0  0  0  0  0
   -7.1996   -3.0820  -14.6598 C   0  0  0  0  0  0
   -8.3575   -3.7610  -15.4496 C   0  0  0  0  0  0
   -8.8992   -2.9960  -16.6491 C   0  0  0  0  0  0
   -7.9994   -5.1425  -15.8232 N   0  0  0  0  0  0
   -7.3836   -1.6592  -14.8729 O   0  0  0  0  0  0
   -6.0990   -2.6018  -11.0200 O   0  0  0  0  0  0
   -1.7832   -7.9951  -11.4453 O   0  0  0  0  0  0
    3.5424   -5.8307  -10.0684 O   0  0  0  0  0  0
    3.8724   -7.0784   -9.6444 C   0  0  0  0  0  0
    3.5765   -7.5766   -8.5750 O   0  0  0  0  0  0
    4.5841   -7.7884  -10.7629 C   0  0  0  0  0  0
    4.9918   -9.2220  -10.3871 C   0  0  0  0  0  0
    5.1036  -10.1417  -11.6098 C   0  0  0  0  0  0
    3.7379  -10.5146  -12.1382 C   0  0  0  0  0  0
    2.7215  -10.5127  -11.4522 O   0  0  0  0  0  0
    3.7405  -10.8486  -13.4371 O   0  0  0  0  0  0
    6.3551   -9.1043   -9.6918 C   0  0  0  0  0  0
    7.3738   -9.6165  -10.1304 O   0  0  0  0  0  0
    6.3286   -8.4323   -8.5327 O   0  0  0  0  0  0
    3.5639   -3.0006   -7.7896 O   0  0  0  0  0  0
    2.4011   -2.6370   -7.1311 C   0  0  0  0  0  0
    2.1872   -2.8247   -5.9406 O   0  0  0  0  0  0
    1.3885   -1.9608   -8.0648 C   0  0  0  0  0  0
    1.8973   -0.6858   -8.8063 C   0  0  0  0  0  0
    0.8775    0.1351   -9.6167 C   0  0  0  0  0  0
    1.5163    1.2157  -10.4405 C   0  0  0  0  0  0
    0.9210    2.0487  -11.1099 O   0  0  0  0  0  0
    2.8556    1.1984  -10.3599 O   0  0  0  0  0  0
    2.6717    0.2996   -7.9223 C   0  0  0  0  0  0
    3.7994    0.0838   -7.5241 O   0  0  0  0  0  0
    2.0596    1.4813   -7.6981 O   0  0  0  0  0  0
   -8.7514   -5.5429  -16.3824 H   0  0  0  0  0  0
   -7.9693   -5.7129  -14.9752 H   0  0  0  0  0  0
   -7.1111   -1.5118  -15.8032 H   0  0  0  0  0  0
   -6.5676   -3.4016  -10.7177 H   0  0  0  0  0  0
   -2.7456   -8.1156  -11.5072 H   0  0  0  0  0  0
    2.9049  -11.2273  -13.7716 H   0  0  0  0  0  0
    5.4454   -8.0527   -8.2989 H   0  0  0  0  0  0
    3.1851    1.8522  -11.0121 H   0  0  0  0  0  0
    1.0834    1.4766   -7.8125 H   0  0  0  0  0  0
  1  2  1  0  0  0
  2  3  1  0  0  0
  3  4  1  0  0  0
  4  5  1  0  0  0
  5  6  1  0  0  0
  5  7  1  0  0  0
  7  8  1  0  0  0
  7 39  1  0  0  0
  8  9  1  0  0  0
  8 27  1  0  0  0
  9 10  1  0  0  0
 10 11  1  0  0  0
 10 12  1  0  0  0
 12 13  1  0  0  0
 13 14  1  0  0  0
 13 26  1  0  0  0
 14 15  1  0  0  0
 15 16  1  0  0  0
 16 17  1  0  0  0
 17 18  1  0  0  0
 18 19  1  0  0  0
 18 25  1  0  0  0
 19 20  1  0  0  0
 20 21  1  0  0  0
 20 24  1  0  0  0
 21 22  1  0  0  0
 21 23  1  0  0  0
 23 51  1  0  0  0
 23 52  1  0  0  0
 24 53  1  0  0  0
 25 54  1  0  0  0
 26 55  1  0  0  0
 27 28  1  0  0  0
 28 29  2  0  0  0
 28 30  1  0  0  0
 30 31  1  0  0  0
 31 32  1  0  0  0
 31 36  1  0  0  0
 32 33  1  0  0  0
 33 34  2  0  0  0
 33 35  1  0  0  0
 35 56  1  0  0  0
 36 37  2  0  0  0
 36 38  1  0  0  0
 38 57  1  0  0  0
 39 40  1  0  0  0
 40 41  2  0  0  0
 40 42  1  0  0  0
 42 43  1  0  0  0
 43 44  1  0  0  0
 43 48  1  0  0  0
 44 45  1  0  0  0
 45 46  2  0  0  0
 45 47  1  0  0  0
 47 58  1  0  0  0
 48 49  2  0  0  0
 48 50  1  0  0  0
 50 59  1  0  0  0
M  END
>  <AUTHOR>
    GENERATED BY OPEN BABEL 2.4.1

>  <CHROM.1>
-67.92471666,78.81482057,97.28634850,-63.22303733,-128.19835063,158.97224992
140.77289746,134.28722621,105.36715181,-86.34992543,173.10204767,-172.41223267
-176.23121526,67.76223621,60.02848579,145.40743896,-54.78985878,-75.74059385
-80.39265604,170.27615859,144.79985824,159.16774289,-176.83067120,0.18048651
-179.48847908,153.48819653,-74.27337155,-117.69465621,-24.54673382,170.80937182
-3.39725806,140.15178558,-57.27100988,-172.47304074,-171.68955589,72.92842431
-175.62917633,172.76651719,22.41598845,0.97833274,-4.52056978,-10.66504838
-0.05407912,-0.40639267,0.28781290

>  <COMPND>
    UNNAMED

>  <MASTER>
        0    0    0    0    0    0    0    0  109    0  109    0

>  <Name>
FB1.pdb

>  <RI>
0

>  <Rbt.Current_Directory>
/home/fc/tossine/F10/p3/0_clust01

>  <Rbt.Executable>
rbdock/0.1.0

>  <Rbt.Library>
librxdock.so/0.1.0

>  <Rbt.Parameter_File>
/cluster/rxdock/data/scripts/dock.prm

>  <Rbt.Receptor>
rx_2.prm

>  <SCORE>
38.9464

>  <SCORE.INTER>
4.97954

>  <SCORE.INTER.CONST>
1

>  <SCORE.INTER.POLAR>
-2.30841

>  <SCORE.INTER.REPUL>
0.806234

>  <SCORE.INTER.ROT>
32

>  <SCORE.INTER.VDW>
-28.603

>  <SCORE.INTER.norm>
0.0995907

>  <SCORE.INTRA>
27.3339

>  <SCORE.INTRA.DIHEDRAL>
25.5679

>  <SCORE.INTRA.DIHEDRAL.0>
47.3121

>  <SCORE.INTRA.POLAR>
1.47808

>  <SCORE.INTRA.POLAR.0>
-1.47808

>  <SCORE.INTRA.REPUL>
0

>  <SCORE.INTRA.REPUL.0>
0

>  <SCORE.INTRA.VDW>
9.52446

>  <SCORE.INTRA.VDW.0>
-2.78316

>  <SCORE.INTRA.norm>
0.546677

>  <SCORE.RESTR>
6.633

>  <SCORE.RESTR.CAVITY>
6.633

>  <SCORE.RESTR.norm>
0.13266

>  <SCORE.SYSTEM>
0

>  <SCORE.SYSTEM.CONST>
0

>  <SCORE.SYSTEM.DIHEDRAL>
0

>  <SCORE.SYSTEM.norm>
0

>  <SCORE.heavy>
50

>  <SCORE.norm>
0.778928

$$$$
