FB1.pdb
  RxDock  10062017223D
librxdock.so/0.1.0
 59 58  0  0  0  0  0  0  0  0999 V2000
  -14.0552  -10.1655    5.9065 C   0  0  0  0  0  0
  -14.2951   -9.4509    7.2343 C   0  0  0  0  0  0
  -15.1018   -8.1555    7.0461 C   0  0  0  0  0  0
  -14.2744   -6.8705    7.2985 C   0  0  0  0  0  0
  -14.0715   -6.5003    8.8092 C   0  0  0  0  0  0
  -14.2396   -7.7863    9.6510 C   0  0  0  0  0  0
  -12.6774   -5.8041    9.1089 C   0  0  0  0  0  0
  -12.5157   -4.2773    8.6520 C   0  0  0  0  0  0
  -11.1547   -3.4553    8.6725 C   0  0  0  0  0  0
  -10.6934   -2.9031   10.1569 C   0  0  0  0  0  0
   -9.2205   -3.2503   10.3674 C   0  0  0  0  0  0
  -10.9207   -1.3480   10.4305 C   0  0  0  0  0  0
  -11.4128   -0.7379   11.8462 C   0  0  0  0  0  0
  -10.8206    0.5850   12.4422 C   0  0  0  0  0  0
   -9.9110    1.4991   11.5008 C   0  0  0  0  0  0
  -10.0833    1.6099    9.9347 C   0  0  0  0  0  0
   -9.8900    0.3479    9.0531 C   0  0  0  0  0  0
   -8.4361    0.0922    8.4962 C   0  0  0  0  0  0
   -7.5173    1.3171    8.4077 C   0  0  0  0  0  0
   -6.2247    1.2088    7.5499 C   0  0  0  0  0  0
   -4.8466    1.6330    8.1383 C   0  0  0  0  0  0
   -4.6591    3.1167    8.4229 C   0  0  0  0  0  0
   -4.5092    0.8220    9.3236 N   0  0  0  0  0  0
   -6.0911   -0.2068    7.2636 O   0  0  0  0  0  0
   -7.8091   -0.8872    9.3314 O   0  0  0  0  0  0
  -12.8147   -0.4745   11.6678 O   0  0  0  0  0  0
  -12.9500   -4.2196    7.2661 O   0  0  0  0  0  0
  -13.3569   -3.0115    6.7970 C   0  0  0  0  0  0
  -13.2124   -1.9386    7.3514 O   0  0  0  0  0  0
  -13.9309   -3.2042    5.4204 C   0  0  0  0  0  0
  -14.6424   -1.9467    4.8962 C   0  0  0  0  0  0
  -15.4916   -1.2589    5.9728 C   0  0  0  0  0  0
  -16.1161    0.0119    5.4451 C   0  0  0  0  0  0
  -16.6228    0.1074    4.3325 O   0  0  0  0  0  0
  -16.0659    1.0326    6.3137 O   0  0  0  0  0  0
  -13.5313   -1.0009    4.4199 C   0  0  0  0  0  0
  -12.5330   -0.7585    5.0810 O   0  0  0  0  0  0
  -13.7688   -0.4208    3.2354 O   0  0  0  0  0  0
  -12.2705   -6.0063   10.5208 O   0  0  0  0  0  0
  -13.0594   -5.4589   11.5188 C   0  0  0  0  0  0
  -14.1505   -4.9353   11.3355 O   0  0  0  0  0  0
  -12.4133   -5.5788   12.9054 C   0  0  0  0  0  0
  -10.8811   -5.2904   12.9660 C   0  0  0  0  0  0
  -10.2425   -5.0600   14.3479 C   0  0  0  0  0  0
  -10.5272   -3.6951   14.9053 C   0  0  0  0  0  0
  -10.4876   -2.6456   14.2779 O   0  0  0  0  0  0
  -10.8615   -3.7308   16.2042 O   0  0  0  0  0  0
  -10.0097   -6.3155   12.2297 C   0  0  0  0  0  0
   -9.7456   -6.2291   11.0467 O   0  0  0  0  0  0
   -9.4597   -7.2726   13.0061 O   0  0  0  0  0  0
   -3.5325    0.5369    9.2663 H   0  0  0  0  0  0
   -5.0409   -0.0505    9.2845 H   0  0  0  0  0  0
   -6.8967   -0.4322    6.7522 H   0  0  0  0  0  0
   -6.9856   -1.1756    8.8965 H   0  0  0  0  0  0
  -13.1472   -1.0714   10.9766 H   0  0  0  0  0  0
  -16.9319    1.4010    6.5742 H   0  0  0  0  0  0
  -13.6917    0.5655    3.2391 H   0  0  0  0  0  0
  -10.6848   -2.8363   16.5648 H   0  0  0  0  0  0
   -9.7287   -8.1933   12.7911 H   0  0  0  0  0  0
  1  2  1  0  0  0
  2  3  1  0  0  0
  3  4  1  0  0  0
  4  5  1  0  0  0
  5  6  1  0  0  0
  5  7  1  0  0  0
  7  8  1  0  0  0
  7 39  1  0  0  0
  8  9  1  0  0  0
  8 27  1  0  0  0
  9 10  1  0  0  0
 10 11  1  0  0  0
 10 12  1  0  0  0
 12 13  1  0  0  0
 13 14  1  0  0  0
 13 26  1  0  0  0
 14 15  1  0  0  0
 15 16  1  0  0  0
 16 17  1  0  0  0
 17 18  1  0  0  0
 18 19  1  0  0  0
 18 25  1  0  0  0
 19 20  1  0  0  0
 20 21  1  0  0  0
 20 24  1  0  0  0
 21 22  1  0  0  0
 21 23  1  0  0  0
 23 51  1  0  0  0
 23 52  1  0  0  0
 24 53  1  0  0  0
 25 54  1  0  0  0
 26 55  1  0  0  0
 27 28  1  0  0  0
 28 29  2  0  0  0
 28 30  1  0  0  0
 30 31  1  0  0  0
 31 32  1  0  0  0
 31 36  1  0  0  0
 32 33  1  0  0  0
 33 34  2  0  0  0
 33 35  1  0  0  0
 35 56  1  0  0  0
 36 37  2  0  0  0
 36 38  1  0  0  0
 38 57  1  0  0  0
 39 40  1  0  0  0
 40 41  2  0  0  0
 40 42  1  0  0  0
 42 43  1  0  0  0
 43 44  1  0  0  0
 43 48  1  0  0  0
 44 45  1  0  0  0
 45 46  2  0  0  0
 45 47  1  0  0  0
 47 58  1  0  0  0
 48 49  2  0  0  0
 48 50  1  0  0  0
 50 59  1  0  0  0
M  END
>  <AUTHOR>
    GENERATED BY OPEN BABEL 2.4.1

>  <CHROM.1>
-110.50272165,-79.25108657,23.10772888,74.56940361,-171.19917105,-63.75515082
-78.04734000,157.27255350,132.01305800,141.45139144,139.77387606,11.78285630
25.53532362,30.66838416,-62.06964062,-91.30458845,-22.61385325,-164.84024400
169.12767642,-129.74791375,-67.53023300,61.76050332,135.90030082,11.58486993
170.00348127,-41.76413725,176.94865395,-46.88742748,42.52496444,-120.46547955
126.97444850,8.09388305,41.54995724,165.53716668,-76.67953147,87.21025857
-43.06123991,158.21357332,118.69959145,-11.47119119,-2.75631107,9.17197895
2.71357985,0.71600335,2.38202518

>  <COMPND>
    UNNAMED

>  <MASTER>
        0    0    0    0    0    0    0    0  109    0  109    0

>  <Name>
FB1.pdb

>  <RI>
0

>  <Rbt.Current_Directory>
/home/fc/tossine/F10/p3/0_clust01

>  <Rbt.Executable>
rbdock/0.1.0

>  <Rbt.Library>
librxdock.so/0.1.0

>  <Rbt.Parameter_File>
/cluster/rxdock/data/scripts/dock.prm

>  <Rbt.Receptor>
rx_2.prm

>  <SCORE>
102.878

>  <SCORE.INTER>
22.585

>  <SCORE.INTER.CONST>
1

>  <SCORE.INTER.POLAR>
-2.61575

>  <SCORE.INTER.REPUL>
2.5954

>  <SCORE.INTER.ROT>
32

>  <SCORE.INTER.VDW>
-18.8985

>  <SCORE.INTER.norm>
0.451699

>  <SCORE.INTRA>
65.8844

>  <SCORE.INTRA.DIHEDRAL>
84.6484

>  <SCORE.INTRA.DIHEDRAL.0>
47.3121

>  <SCORE.INTRA.POLAR>
1.11276

>  <SCORE.INTRA.POLAR.0>
-1.47808

>  <SCORE.INTRA.REPUL>
0

>  <SCORE.INTRA.REPUL.0>
0

>  <SCORE.INTRA.VDW>
19.7768

>  <SCORE.INTRA.VDW.0>
-2.78316

>  <SCORE.INTRA.norm>
1.31769

>  <SCORE.RESTR>
14.4082

>  <SCORE.RESTR.CAVITY>
14.4082

>  <SCORE.RESTR.norm>
0.288165

>  <SCORE.SYSTEM>
0

>  <SCORE.SYSTEM.CONST>
0

>  <SCORE.SYSTEM.DIHEDRAL>
0

>  <SCORE.SYSTEM.norm>
0

>  <SCORE.heavy>
50

>  <SCORE.norm>
2.05755

$$$$
