FB1.pdb
  RxDock  10062017193D
librxdock.so/0.1.0
 59 58  0  0  0  0  0  0  0  0999 V2000
  -15.0330    0.2383    6.9301 C   0  0  0  0  0  0
  -15.2765   -1.0510    6.1493 C   0  0  0  0  0  0
  -16.7492   -1.1936    5.7306 C   0  0  0  0  0  0
  -16.9943   -2.3364    4.7140 C   0  0  0  0  0  0
  -16.8175   -3.7843    5.2909 C   0  0  0  0  0  0
  -18.0907   -4.5972    4.9610 C   0  0  0  0  0  0
  -15.5183   -4.5237    4.7588 C   0  0  0  0  0  0
  -14.6400   -3.7505    3.6647 C   0  0  0  0  0  0
  -13.8072   -2.4226    3.9320 C   0  0  0  0  0  0
  -12.5454   -2.5878    4.9817 C   0  0  0  0  0  0
  -11.6399   -1.3645    4.8481 C   0  0  0  0  0  0
  -12.9298   -2.8038    6.5148 C   0  0  0  0  0  0
  -12.0562   -2.2450    7.7571 C   0  0  0  0  0  0
  -12.6017   -2.2251    9.2261 C   0  0  0  0  0  0
  -11.7256   -2.9153   10.3687 C   0  0  0  0  0  0
  -11.1998   -2.1695   11.6578 C   0  0  0  0  0  0
  -10.0365   -1.1507   11.5307 C   0  0  0  0  0  0
  -10.4413    0.3642   11.3557 C   0  0  0  0  0  0
  -10.2793    0.9525    9.9485 C   0  0  0  0  0  0
   -9.9411   -0.0153    8.7792 C   0  0  0  0  0  0
  -10.5332    0.2226    7.3585 C   0  0  0  0  0  0
  -11.7394    1.1475    7.2734 C   0  0  0  0  0  0
   -9.4803    0.6410    6.4137 N   0  0  0  0  0  0
   -8.5049    0.0987    8.6113 O   0  0  0  0  0  0
  -11.8097    0.5044   11.7525 O   0  0  0  0  0  0
  -10.8931   -3.0887    7.8000 O   0  0  0  0  0  0
  -13.6527   -4.7046    3.1880 O   0  0  0  0  0  0
  -14.1102   -5.7481    2.4483 C   0  0  0  0  0  0
  -15.2107   -5.8407    1.9385 O   0  0  0  0  0  0
  -12.9898   -6.7360    2.2747 C   0  0  0  0  0  0
  -13.4899   -8.1289    1.8599 C   0  0  0  0  0  0
  -14.2783   -8.1036    0.5442 C   0  0  0  0  0  0
  -13.4591   -7.4957   -0.5706 C   0  0  0  0  0  0
  -12.5371   -6.7092   -0.3835 O   0  0  0  0  0  0
  -13.8358   -7.9006   -1.7925 O   0  0  0  0  0  0
  -12.2347   -8.9984    1.7035 C   0  0  0  0  0  0
  -11.1326   -8.5385    1.4460 O   0  0  0  0  0  0
  -12.4553  -10.3148    1.8240 O   0  0  0  0  0  0
  -14.6893   -5.0245    5.8821 O   0  0  0  0  0  0
  -14.6811   -6.3852    6.1397 C   0  0  0  0  0  0
  -14.3747   -7.2463    5.3254 O   0  0  0  0  0  0
  -15.1031   -6.7095    7.5788 C   0  0  0  0  0  0
  -13.9383   -6.9057    8.5983 C   0  0  0  0  0  0
  -12.8997   -8.0044    8.3072 C   0  0  0  0  0  0
  -13.4511   -9.3912    8.4716 C   0  0  0  0  0  0
  -13.5046  -10.0181    9.5207 O   0  0  0  0  0  0
  -13.9174   -9.8979    7.3200 O   0  0  0  0  0  0
  -13.1622   -5.6262    8.9338 C   0  0  0  0  0  0
  -12.2227   -5.2311    8.2719 O   0  0  0  0  0  0
  -13.6573   -4.8999    9.9578 O   0  0  0  0  0  0
   -9.6582    1.6000    6.1184 H   0  0  0  0  0  0
   -9.5657    0.0827    5.5613 H   0  0  0  0  0  0
   -8.2162   -0.7983    8.3403 H   0  0  0  0  0  0
  -12.3723    0.1918   11.0203 H   0  0  0  0  0  0
  -11.1898   -4.0127    7.7467 H   0  0  0  0  0  0
  -14.6567   -8.4286   -1.8217 H   0  0  0  0  0  0
  -11.6486  -10.8773    1.7160 H   0  0  0  0  0  0
  -13.9788   -9.1505    6.6883 H   0  0  0  0  0  0
  -14.5243   -5.2037   10.3072 H   0  0  0  0  0  0
  1  2  1  0  0  0
  2  3  1  0  0  0
  3  4  1  0  0  0
  4  5  1  0  0  0
  5  6  1  0  0  0
  5  7  1  0  0  0
  7  8  1  0  0  0
  7 39  1  0  0  0
  8  9  1  0  0  0
  8 27  1  0  0  0
  9 10  1  0  0  0
 10 11  1  0  0  0
 10 12  1  0  0  0
 12 13  1  0  0  0
 13 14  1  0  0  0
 13 26  1  0  0  0
 14 15  1  0  0  0
 15 16  1  0  0  0
 16 17  1  0  0  0
 17 18  1  0  0  0
 18 19  1  0  0  0
 18 25  1  0  0  0
 19 20  1  0  0  0
 20 21  1  0  0  0
 20 24  1  0  0  0
 21 22  1  0  0  0
 21 23  1  0  0  0
 23 51  1  0  0  0
 23 52  1  0  0  0
 24 53  1  0  0  0
 25 54  1  0  0  0
 26 55  1  0  0  0
 27 28  1  0  0  0
 28 29  2  0  0  0
 28 30  1  0  0  0
 30 31  1  0  0  0
 31 32  1  0  0  0
 31 36  1  0  0  0
 32 33  1  0  0  0
 33 34  2  0  0  0
 33 35  1  0  0  0
 35 56  1  0  0  0
 36 37  2  0  0  0
 36 38  1  0  0  0
 38 57  1  0  0  0
 39 40  1  0  0  0
 40 41  2  0  0  0
 40 42  1  0  0  0
 42 43  1  0  0  0
 43 44  1  0  0  0
 43 48  1  0  0  0
 44 45  1  0  0  0
 45 46  2  0  0  0
 45 47  1  0  0  0
 47 58  1  0  0  0
 48 49  2  0  0  0
 48 50  1  0  0  0
 50 59  1  0  0  0
M  END
>  <AUTHOR>
    GENERATED BY OPEN BABEL 2.4.1

>  <CHROM.1>
168.97882295,69.54260648,127.64626250,-3.71463790,67.63987714,106.17785822
65.46697549,68.71787523,165.05791259,-146.49262734,167.51311866,126.49573310
-48.01068262,122.24961837,-73.16671208,94.20401214,-105.03957958,8.86532096
-78.98082091,144.12407918,-17.76152758,146.13536589,-113.90734718,14.45291907
161.60974644,58.76227149,56.10559052,-25.37329148,-24.64575917,8.16084535
179.51954343,56.70034911,-95.80928012,-58.46121255,-70.59402213,-86.57954186
-85.87167396,-13.32317162,-7.42454027,-13.09697874,-4.30495568,6.01677734
-0.01247272,-1.33241715,-0.77873108

>  <COMPND>
    UNNAMED

>  <MASTER>
        0    0    0    0    0    0    0    0  109    0  109    0

>  <Name>
FB1.pdb

>  <RI>
0

>  <Rbt.Current_Directory>
/home/fc/tossine/F10/p3/0_clust01

>  <Rbt.Executable>
rbdock/0.1.0

>  <Rbt.Library>
librxdock.so/0.1.0

>  <Rbt.Parameter_File>
/cluster/rxdock/data/scripts/dock.prm

>  <Rbt.Receptor>
rx_2.prm

>  <SCORE>
59.5101

>  <SCORE.INTER>
12.8128

>  <SCORE.INTER.CONST>
1

>  <SCORE.INTER.POLAR>
-2.45379

>  <SCORE.INTER.REPUL>
0.329396

>  <SCORE.INTER.ROT>
32

>  <SCORE.INTER.VDW>
-17.8913

>  <SCORE.INTER.norm>
0.256256

>  <SCORE.INTRA>
32.4744

>  <SCORE.INTRA.DIHEDRAL>
54.5518

>  <SCORE.INTRA.DIHEDRAL.0>
47.3121

>  <SCORE.INTRA.POLAR>
0.493513

>  <SCORE.INTRA.POLAR.0>
-1.47808

>  <SCORE.INTRA.REPUL>
0

>  <SCORE.INTRA.REPUL.0>
0

>  <SCORE.INTRA.VDW>
3.52056

>  <SCORE.INTRA.VDW.0>
-2.78316

>  <SCORE.INTRA.norm>
0.649488

>  <SCORE.RESTR>
14.2229

>  <SCORE.RESTR.CAVITY>
14.2229

>  <SCORE.RESTR.norm>
0.284458

>  <SCORE.SYSTEM>
0

>  <SCORE.SYSTEM.CONST>
0

>  <SCORE.SYSTEM.DIHEDRAL>
0

>  <SCORE.SYSTEM.norm>
0

>  <SCORE.heavy>
50

>  <SCORE.norm>
1.1902

$$$$
