FB1.pdb
  RxDock  10062015583D
librxdock.so/0.1.0
 59 58  0  0  0  0  0  0  0  0999 V2000
   -8.6762   -1.1552   10.9265 C   0  0  0  0  0  0
   -9.4000   -2.0970    9.9670 C   0  0  0  0  0  0
  -10.5730   -1.3982    9.2600 C   0  0  0  0  0  0
  -11.6402   -0.8431   10.2361 C   0  0  0  0  0  0
  -12.2347   -1.8963   11.2349 C   0  0  0  0  0  0
  -13.6520   -1.4322   11.6432 C   0  0  0  0  0  0
  -12.2665   -3.3725   10.6538 C   0  0  0  0  0  0
  -12.0993   -4.5699   11.7048 C   0  0  0  0  0  0
  -12.9060   -4.7104   13.0678 C   0  0  0  0  0  0
  -12.2292   -3.9454   14.3632 C   0  0  0  0  0  0
  -12.9925   -2.6456   14.6122 C   0  0  0  0  0  0
  -12.1520   -4.7879   15.7157 C   0  0  0  0  0  0
  -13.4444   -5.3615   16.5027 C   0  0  0  0  0  0
  -13.6205   -6.8837   16.8313 C   0  0  0  0  0  0
  -12.4403   -7.6336   17.6020 C   0  0  0  0  0  0
  -12.4863   -9.1514   18.0365 C   0  0  0  0  0  0
  -12.6572  -10.2513   16.9556 C   0  0  0  0  0  0
  -11.6330  -10.2268   15.7558 C   0  0  0  0  0  0
  -10.9278  -11.5511   15.4374 C   0  0  0  0  0  0
  -11.7757  -12.8547   15.4295 C   0  0  0  0  0  0
  -13.0113  -12.9893   14.4910 C   0  0  0  0  0  0
  -14.2245  -12.1395   14.8421 C   0  0  0  0  0  0
  -12.6234  -12.7975   13.0806 N   0  0  0  0  0  0
  -10.8571  -13.8881   14.9914 O   0  0  0  0  0  0
  -12.3337   -9.7918   14.5856 O   0  0  0  0  0  0
  -13.4221   -4.7020   17.7799 O   0  0  0  0  0  0
  -12.4024   -5.7924   10.9796 O   0  0  0  0  0  0
  -11.9347   -6.9541   11.5061 C   0  0  0  0  0  0
  -11.4927   -7.1086   12.6287 O   0  0  0  0  0  0
  -12.1472   -8.0519   10.5006 C   0  0  0  0  0  0
  -12.3663   -7.5146    9.0773 C   0  0  0  0  0  0
  -11.0590   -7.4034    8.2823 C   0  0  0  0  0  0
  -10.4166   -6.0495    8.4761 C   0  0  0  0  0  0
  -10.9850   -5.0979    9.0006 O   0  0  0  0  0  0
   -9.1572   -5.9853    8.0194 O   0  0  0  0  0  0
  -13.3146   -8.5085    8.3925 C   0  0  0  0  0  0
  -14.5143   -8.3113    8.2728 O   0  0  0  0  0  0
  -12.7258   -9.6387    7.9779 O   0  0  0  0  0  0
  -13.4378   -3.5735    9.7664 O   0  0  0  0  0  0
  -13.2823   -3.3483    8.4087 C   0  0  0  0  0  0
  -13.0860   -4.2235    7.5757 O   0  0  0  0  0  0
  -13.3839   -1.8604    8.0483 C   0  0  0  0  0  0
  -13.7589   -1.5464    6.5666 C   0  0  0  0  0  0
  -13.4856   -2.6288    5.5064 C   0  0  0  0  0  0
  -12.2870   -2.3257    4.6542 C   0  0  0  0  0  0
  -11.7210   -1.2439    4.5777 O   0  0  0  0  0  0
  -11.8612   -3.3972    3.9679 O   0  0  0  0  0  0
  -15.2009   -1.0657    6.3619 C   0  0  0  0  0  0
  -15.9653   -1.5877    5.5746 O   0  0  0  0  0  0
  -15.6083   -0.0848    7.1943 O   0  0  0  0  0  0
  -13.0771  -13.5093   12.5096 H   0  0  0  0  0  0
  -11.6224  -12.9848   12.9888 H   0  0  0  0  0  0
  -11.3226  -14.7294   15.1833 H   0  0  0  0  0  0
  -12.6880   -8.8998   14.7572 H   0  0  0  0  0  0
  -14.2282   -4.9523   18.2616 H   0  0  0  0  0  0
   -8.6635   -5.1811    8.2703 H   0  0  0  0  0  0
  -13.3367  -10.2832    7.5419 H   0  0  0  0  0  0
  -11.3818   -3.9673    4.6055 H   0  0  0  0  0  0
  -14.8957    0.3439    7.7184 H   0  0  0  0  0  0
  1  2  1  0  0  0
  2  3  1  0  0  0
  3  4  1  0  0  0
  4  5  1  0  0  0
  5  6  1  0  0  0
  5  7  1  0  0  0
  7  8  1  0  0  0
  7 39  1  0  0  0
  8  9  1  0  0  0
  8 27  1  0  0  0
  9 10  1  0  0  0
 10 11  1  0  0  0
 10 12  1  0  0  0
 12 13  1  0  0  0
 13 14  1  0  0  0
 13 26  1  0  0  0
 14 15  1  0  0  0
 15 16  1  0  0  0
 16 17  1  0  0  0
 17 18  1  0  0  0
 18 19  1  0  0  0
 18 25  1  0  0  0
 19 20  1  0  0  0
 20 21  1  0  0  0
 20 24  1  0  0  0
 21 22  1  0  0  0
 21 23  1  0  0  0
 23 51  1  0  0  0
 23 52  1  0  0  0
 24 53  1  0  0  0
 25 54  1  0  0  0
 26 55  1  0  0  0
 27 28  1  0  0  0
 28 29  2  0  0  0
 28 30  1  0  0  0
 30 31  1  0  0  0
 31 32  1  0  0  0
 31 36  1  0  0  0
 32 33  1  0  0  0
 33 34  2  0  0  0
 33 35  1  0  0  0
 35 56  1  0  0  0
 36 37  2  0  0  0
 36 38  1  0  0  0
 38 57  1  0  0  0
 39 40  1  0  0  0
 40 41  2  0  0  0
 40 42  1  0  0  0
 42 43  1  0  0  0
 43 44  1  0  0  0
 43 48  1  0  0  0
 44 45  1  0  0  0
 45 46  2  0  0  0
 45 47  1  0  0  0
 47 58  1  0  0  0
 48 49  2  0  0  0
 48 50  1  0  0  0
 50 59  1  0  0  0
M  END
>  <AUTHOR>
    GENERATED BY OPEN BABEL 2.4.1

>  <CHROM.1>
-59.05808442,-55.00354026,-153.88111974,148.81086170,48.59062718,92.35424127
-87.47987648,159.72128148,102.32791824,-61.25902675,123.38869047,53.37204643
174.83060237,178.29029295,59.78409099,53.45732115,129.30837774,43.43503744
60.01188785,57.64030486,-70.24240554,167.31628340,135.95039504,13.69057728
18.93295925,91.73355826,-89.69578443,99.80306942,-12.02626686,-169.59236642
179.59920056,98.48675419,-157.82032502,-22.30596579,-104.55587558,-126.49463167
-14.35733500,-76.55035417,11.80169902,-12.43870265,-5.75445281,11.11996098
2.38559964,1.51734725,-1.62054204

>  <COMPND>
    UNNAMED

>  <MASTER>
        0    0    0    0    0    0    0    0  109    0  109    0

>  <Name>
FB1.pdb

>  <RI>
0

>  <Rbt.Current_Directory>
/home/fc/tossine/F10/p3/0_clust01

>  <Rbt.Executable>
rbdock/0.1.0

>  <Rbt.Library>
librxdock.so/0.1.0

>  <Rbt.Parameter_File>
/cluster/rxdock/data/scripts/dock.prm

>  <Rbt.Receptor>
rx_0.prm

>  <SCORE>
82.6912

>  <SCORE.INTER>
40.284

>  <SCORE.INTER.CONST>
1

>  <SCORE.INTER.POLAR>
-1.17293

>  <SCORE.INTER.REPUL>
1.10631

>  <SCORE.INTER.ROT>
32

>  <SCORE.INTER.VDW>
1.34048

>  <SCORE.INTER.norm>
0.805681

>  <SCORE.INTRA>
36.4412

>  <SCORE.INTRA.DIHEDRAL>
57.5417

>  <SCORE.INTRA.DIHEDRAL.0>
47.3121

>  <SCORE.INTRA.POLAR>
1.45624

>  <SCORE.INTRA.POLAR.0>
-1.47808

>  <SCORE.INTRA.REPUL>
0

>  <SCORE.INTRA.REPUL.0>
0

>  <SCORE.INTRA.VDW>
2.71911

>  <SCORE.INTRA.VDW.0>
-2.78316

>  <SCORE.INTRA.norm>
0.728823

>  <SCORE.RESTR>
5.96603

>  <SCORE.RESTR.CAVITY>
5.96603

>  <SCORE.RESTR.norm>
0.119321

>  <SCORE.SYSTEM>
0

>  <SCORE.SYSTEM.CONST>
0

>  <SCORE.SYSTEM.DIHEDRAL>
0

>  <SCORE.SYSTEM.norm>
0

>  <SCORE.heavy>
50

>  <SCORE.norm>
1.65382

$$$$
