FB1.pdb
  RxDock  10062017473D
librxdock.so/0.1.0
 59 58  0  0  0  0  0  0  0  0999 V2000
    2.0835   -9.7113   -4.3227 C   0  0  0  0  0  0
    2.4120  -10.8115   -3.3162 C   0  0  0  0  0  0
    1.1630  -11.6206   -2.9293 C   0  0  0  0  0  0
    0.2115  -10.8657   -1.9678 C   0  0  0  0  0  0
    0.4992  -11.0887   -0.4421 C   0  0  0  0  0  0
    1.6799  -10.1783   -0.0325 C   0  0  0  0  0  0
   -0.7631  -10.8320    0.4845 C   0  0  0  0  0  0
   -0.6095  -11.1951    2.0372 C   0  0  0  0  0  0
   -1.7528  -11.8207    2.9481 C   0  0  0  0  0  0
   -2.5018  -10.7553    3.9607 C   0  0  0  0  0  0
   -3.9667  -11.1661    4.0996 C   0  0  0  0  0  0
   -1.8537  -10.5873    5.4087 C   0  0  0  0  0  0
   -1.8547  -11.7415    6.5429 C   0  0  0  0  0  0
   -3.1226  -12.0742    7.4019 C   0  0  0  0  0  0
   -3.3350  -11.2875    8.7749 C   0  0  0  0  0  0
   -3.0291   -9.7509    8.9752 C   0  0  0  0  0  0
   -1.6107   -9.3051    9.4189 C   0  0  0  0  0  0
   -1.5209   -7.9745   10.2619 C   0  0  0  0  0  0
   -0.6617   -8.0312   11.5312 C   0  0  0  0  0  0
   -0.8881   -6.9481   12.6238 C   0  0  0  0  0  0
   -0.0091   -5.6630   12.6583 C   0  0  0  0  0  0
   -0.3509   -4.6369   13.7296 C   0  0  0  0  0  0
    1.4248   -6.0079   12.6970 N   0  0  0  0  0  0
   -2.2393   -6.4727   12.3957 O   0  0  0  0  0  0
   -1.0060   -6.9457    9.4098 O   0  0  0  0  0  0
   -1.5520  -12.9555    5.8350 O   0  0  0  0  0  0
    0.4832  -12.1494    2.1251 O   0  0  0  0  0  0
    0.9503  -12.4396    3.3673 C   0  0  0  0  0  0
    0.3730  -12.2367    4.4185 O   0  0  0  0  0  0
    2.2672  -13.1518    3.2262 C   0  0  0  0  0  0
    3.4328  -12.3662    3.8480 C   0  0  0  0  0  0
    4.7811  -12.6996    3.1967 C   0  0  0  0  0  0
    5.8481  -12.9329    4.2409 C   0  0  0  0  0  0
    6.8128  -12.1932    4.4019 O   0  0  0  0  0  0
    5.6395  -14.0312    4.9820 O   0  0  0  0  0  0
    3.1008  -10.8824    3.6384 C   0  0  0  0  0  0
    2.6697  -10.1634    4.5270 O   0  0  0  0  0  0
    3.2762  -10.4485    2.3826 O   0  0  0  0  0  0
   -1.3043   -9.4654    0.2857 O   0  0  0  0  0  0
   -2.4925   -9.1294    0.9129 C   0  0  0  0  0  0
   -3.2097   -9.9181    1.5143 O   0  0  0  0  0  0
   -2.8240   -7.6376    0.7746 C   0  0  0  0  0  0
   -4.2954   -7.2373    1.1051 C   0  0  0  0  0  0
   -4.7332   -7.2459    2.5812 C   0  0  0  0  0  0
   -3.5760   -7.1927    3.5365 C   0  0  0  0  0  0
   -2.5034   -7.7626    3.3904 O   0  0  0  0  0  0
   -3.8255   -6.4165    4.6021 O   0  0  0  0  0  0
   -4.7409   -5.8965    0.5085 C   0  0  0  0  0  0
   -4.7862   -5.6888   -0.6880 O   0  0  0  0  0  0
   -5.1862   -4.9854    1.3989 O   0  0  0  0  0  0
    1.7580   -5.9437   13.6579 H   0  0  0  0  0  0
    1.9471   -5.2909   12.1885 H   0  0  0  0  0  0
   -2.7762   -7.2884   12.3072 H   0  0  0  0  0  0
   -0.3140   -6.4636    9.8989 H   0  0  0  0  0  0
   -2.2317  -13.0830    5.1523 H   0  0  0  0  0  0
    5.2490  -14.7880    4.5043 H   0  0  0  0  0  0
    3.0582   -9.4934    2.2446 H   0  0  0  0  0  0
   -2.9559   -6.1163    4.9413 H   0  0  0  0  0  0
   -4.7896   -5.0470    2.2962 H   0  0  0  0  0  0
  1  2  1  0  0  0
  2  3  1  0  0  0
  3  4  1  0  0  0
  4  5  1  0  0  0
  5  6  1  0  0  0
  5  7  1  0  0  0
  7  8  1  0  0  0
  7 39  1  0  0  0
  8  9  1  0  0  0
  8 27  1  0  0  0
  9 10  1  0  0  0
 10 11  1  0  0  0
 10 12  1  0  0  0
 12 13  1  0  0  0
 13 14  1  0  0  0
 13 26  1  0  0  0
 14 15  1  0  0  0
 15 16  1  0  0  0
 16 17  1  0  0  0
 17 18  1  0  0  0
 18 19  1  0  0  0
 18 25  1  0  0  0
 19 20  1  0  0  0
 20 21  1  0  0  0
 20 24  1  0  0  0
 21 22  1  0  0  0
 21 23  1  0  0  0
 23 51  1  0  0  0
 23 52  1  0  0  0
 24 53  1  0  0  0
 25 54  1  0  0  0
 26 55  1  0  0  0
 27 28  1  0  0  0
 28 29  2  0  0  0
 28 30  1  0  0  0
 30 31  1  0  0  0
 31 32  1  0  0  0
 31 36  1  0  0  0
 32 33  1  0  0  0
 33 34  2  0  0  0
 33 35  1  0  0  0
 35 56  1  0  0  0
 36 37  2  0  0  0
 36 38  1  0  0  0
 38 57  1  0  0  0
 39 40  1  0  0  0
 40 41  2  0  0  0
 40 42  1  0  0  0
 42 43  1  0  0  0
 43 44  1  0  0  0
 43 48  1  0  0  0
 44 45  1  0  0  0
 45 46  2  0  0  0
 45 47  1  0  0  0
 47 58  1  0  0  0
 48 49  2  0  0  0
 48 50  1  0  0  0
 50 59  1  0  0  0
M  END
>  <AUTHOR>
    GENERATED BY OPEN BABEL 2.4.1

>  <CHROM.1>
-74.90995236,-90.16875708,79.95244973,173.27373241,-142.99081538,173.17994077
-102.55806706,169.35826120,146.08773345,-68.09037535,-77.25789550,-89.77723650
-58.65866704,39.62531071,-89.09626872,-150.71960328,132.33309244,-160.59502495
-134.12838273,-94.77420676,177.39985835,47.96387682,-99.17206761,18.17230833
117.17288184,-153.80571413,-133.94926503,102.72395461,-113.12170474,36.04271037
179.69867183,-7.88159535,164.31439582,72.86072473,19.41580944,62.25172541
-38.02645077,-155.38705359,29.56580447,-0.52983059,-9.66153962,4.28810892
1.38242052,0.58987102,-1.74156721

>  <COMPND>
    UNNAMED

>  <MASTER>
        0    0    0    0    0    0    0    0  109    0  109    0

>  <Name>
FB1.pdb

>  <RI>
0

>  <Rbt.Current_Directory>
/home/fc/tossine/F10/p3/0_clust01

>  <Rbt.Executable>
rbdock/0.1.0

>  <Rbt.Library>
librxdock.so/0.1.0

>  <Rbt.Parameter_File>
/cluster/rxdock/data/scripts/dock.prm

>  <Rbt.Receptor>
rx_3.prm

>  <SCORE>
69.1173

>  <SCORE.INTER>
22.7294

>  <SCORE.INTER.CONST>
1

>  <SCORE.INTER.POLAR>
-1.09545

>  <SCORE.INTER.REPUL>
2.33939

>  <SCORE.INTER.ROT>
32

>  <SCORE.INTER.VDW>
-22.643

>  <SCORE.INTER.norm>
0.454588

>  <SCORE.INTRA>
38.1357

>  <SCORE.INTRA.DIHEDRAL>
45.2109

>  <SCORE.INTRA.DIHEDRAL.0>
47.3121

>  <SCORE.INTRA.POLAR>
1.47808

>  <SCORE.INTRA.POLAR.0>
-1.47808

>  <SCORE.INTRA.REPUL>
0

>  <SCORE.INTRA.REPUL.0>
0

>  <SCORE.INTRA.VDW>
10.5048

>  <SCORE.INTRA.VDW.0>
-2.78316

>  <SCORE.INTRA.norm>
0.762714

>  <SCORE.RESTR>
8.25219

>  <SCORE.RESTR.CAVITY>
8.25219

>  <SCORE.RESTR.norm>
0.165044

>  <SCORE.SYSTEM>
0

>  <SCORE.SYSTEM.CONST>
0

>  <SCORE.SYSTEM.DIHEDRAL>
0

>  <SCORE.SYSTEM.norm>
0

>  <SCORE.heavy>
50

>  <SCORE.norm>
1.38235

$$$$
