FB1.pdb
  RxDock  10062017533D
librxdock.so/0.1.0
 59 58  0  0  0  0  0  0  0  0999 V2000
    0.3619  -12.9281    6.0326 C   0  0  0  0  0  0
   -1.1599  -12.9764    5.9176 C   0  0  0  0  0  0
   -1.6318  -14.2019    5.1176 C   0  0  0  0  0  0
   -1.9900  -13.8780    3.6457 C   0  0  0  0  0  0
   -0.8062  -13.3126    2.7858 C   0  0  0  0  0  0
   -1.2443  -13.3035    1.3030 C   0  0  0  0  0  0
   -0.3225  -11.8723    3.2435 C   0  0  0  0  0  0
    1.0676  -11.3490    2.6436 C   0  0  0  0  0  0
    1.2156  -10.3198    1.4407 C   0  0  0  0  0  0
    1.6559  -10.9883   -0.0017 C   0  0  0  0  0  0
    0.4009  -11.1759   -0.8526 C   0  0  0  0  0  0
    2.7559  -10.1923   -0.8390 C   0  0  0  0  0  0
    3.6969  -10.8644   -1.9710 C   0  0  0  0  0  0
    3.3247  -10.8445   -3.4932 C   0  0  0  0  0  0
    2.8146   -9.4723   -4.1303 C   0  0  0  0  0  0
    2.5154   -9.2630   -5.6670 C   0  0  0  0  0  0
    1.4525  -10.1506   -6.3668 C   0  0  0  0  0  0
   -0.0508   -9.9109   -5.9520 C   0  0  0  0  0  0
   -0.7324   -8.6751   -6.5525 C   0  0  0  0  0  0
   -2.0029   -8.1189   -5.8491 C   0  0  0  0  0  0
   -3.3983   -8.7574   -6.1150 C   0  0  0  0  0  0
   -3.5348  -10.2413   -5.8036 C   0  0  0  0  0  0
   -4.4658   -7.9801   -5.4573 N   0  0  0  0  0  0
   -1.7595   -8.3246   -4.4340 O   0  0  0  0  0  0
   -0.8023  -11.0710   -6.3249 O   0  0  0  0  0  0
    4.9455  -10.1578   -1.8808 O   0  0  0  0  0  0
    1.7740  -10.7180    3.7460 O   0  0  0  0  0  0
    3.0195  -11.1820    4.0268 C   0  0  0  0  0  0
    3.4319  -12.3071    3.8187 O   0  0  0  0  0  0
    3.8464  -10.0397    4.5492 C   0  0  0  0  0  0
    5.1462   -9.8396    3.7536 C   0  0  0  0  0  0
    6.1940  -10.9182    4.0571 C   0  0  0  0  0  0
    6.8525  -10.6771    5.3956 C   0  0  0  0  0  0
    8.0489  -10.8475    5.6035 O   0  0  0  0  0  0
    6.0008  -10.2548    6.3417 O   0  0  0  0  0  0
    4.7473   -9.8968    2.2725 C   0  0  0  0  0  0
    4.4929  -10.9402    1.6901 O   0  0  0  0  0  0
    4.7483   -8.7084    1.6532 O   0  0  0  0  0  0
   -1.4050  -10.8700    3.0895 O   0  0  0  0  0  0
   -1.6299   -9.9785    4.1252 C   0  0  0  0  0  0
   -0.7607   -9.3116    4.6711 O   0  0  0  0  0  0
   -3.1095   -9.9104    4.5258 C   0  0  0  0  0  0
   -3.4995   -8.7399    5.4809 C   0  0  0  0  0  0
   -3.7577   -9.0705    6.9623 C   0  0  0  0  0  0
   -2.7949  -10.0818    7.5141 C   0  0  0  0  0  0
   -1.6247  -10.2089    7.1808 O   0  0  0  0  0  0
   -3.3494  -10.8557    8.4596 O   0  0  0  0  0  0
   -2.5430   -7.5415    5.4444 C   0  0  0  0  0  0
   -2.7658   -6.5384    4.7956 O   0  0  0  0  0  0
   -1.4780   -7.6249    6.2691 O   0  0  0  0  0  0
   -4.4418   -7.0214   -5.8020 H   0  0  0  0  0  0
   -4.2500   -7.9072   -4.4605 H   0  0  0  0  0  0
   -1.6863   -9.2974   -4.3352 H   0  0  0  0  0  0
   -0.7621  -11.1607   -7.2949 H   0  0  0  0  0  0
    4.7715   -9.2168   -2.0504 H   0  0  0  0  0  0
    6.3773  -10.1848    7.2400 H   0  0  0  0  0  0
    4.3376   -8.7147    0.7531 H   0  0  0  0  0  0
   -4.2630  -10.5259    8.5929 H   0  0  0  0  0  0
   -1.4685   -8.4069    6.8645 H   0  0  0  0  0  0
  1  2  1  0  0  0
  2  3  1  0  0  0
  3  4  1  0  0  0
  4  5  1  0  0  0
  5  6  1  0  0  0
  5  7  1  0  0  0
  7  8  1  0  0  0
  7 39  1  0  0  0
  8  9  1  0  0  0
  8 27  1  0  0  0
  9 10  1  0  0  0
 10 11  1  0  0  0
 10 12  1  0  0  0
 12 13  1  0  0  0
 13 14  1  0  0  0
 13 26  1  0  0  0
 14 15  1  0  0  0
 15 16  1  0  0  0
 16 17  1  0  0  0
 17 18  1  0  0  0
 18 19  1  0  0  0
 18 25  1  0  0  0
 19 20  1  0  0  0
 20 21  1  0  0  0
 20 24  1  0  0  0
 21 22  1  0  0  0
 21 23  1  0  0  0
 23 51  1  0  0  0
 23 52  1  0  0  0
 24 53  1  0  0  0
 25 54  1  0  0  0
 26 55  1  0  0  0
 27 28  1  0  0  0
 28 29  2  0  0  0
 28 30  1  0  0  0
 30 31  1  0  0  0
 31 32  1  0  0  0
 31 36  1  0  0  0
 32 33  1  0  0  0
 33 34  2  0  0  0
 33 35  1  0  0  0
 35 56  1  0  0  0
 36 37  2  0  0  0
 36 38  1  0  0  0
 38 57  1  0  0  0
 39 40  1  0  0  0
 40 41  2  0  0  0
 40 42  1  0  0  0
 42 43  1  0  0  0
 43 44  1  0  0  0
 43 48  1  0  0  0
 44 45  1  0  0  0
 45 46  2  0  0  0
 45 47  1  0  0  0
 47 58  1  0  0  0
 48 49  2  0  0  0
 48 50  1  0  0  0
 50 59  1  0  0  0
M  END
>  <AUTHOR>
    GENERATED BY OPEN BABEL 2.4.1

>  <CHROM.1>
-99.99054207,61.10795359,169.17170846,167.20547289,100.83345353,134.86953418
-104.27458198,124.11461072,98.76219473,157.77977751,94.24415760,45.82008067
-59.68850785,174.79516472,59.03360062,69.26892722,77.17623777,-159.97986584
-62.94440282,-81.94933707,57.98264862,-62.38913067,58.15375781,-27.84983702
-124.99894761,-73.85302156,-76.04732840,-76.31968265,-140.33553998,173.56676933
-169.44163259,49.77944237,-168.40984202,-104.52874707,39.81715314,98.46121153
32.85114329,-3.01254593,-5.20306546,0.64212550,-10.33123492,1.51914729,1.49906684
-0.10179306,1.65627430

>  <COMPND>
    UNNAMED

>  <MASTER>
        0    0    0    0    0    0    0    0  109    0  109    0

>  <Name>
FB1.pdb

>  <RI>
0

>  <Rbt.Current_Directory>
/home/fc/tossine/F10/p3/0_clust01

>  <Rbt.Executable>
rbdock/0.1.0

>  <Rbt.Library>
librxdock.so/0.1.0

>  <Rbt.Parameter_File>
/cluster/rxdock/data/scripts/dock.prm

>  <Rbt.Receptor>
rx_3.prm

>  <SCORE>
53.0526

>  <SCORE.INTER>
16.5069

>  <SCORE.INTER.CONST>
1

>  <SCORE.INTER.POLAR>
-2.27878

>  <SCORE.INTER.REPUL>
0.733139

>  <SCORE.INTER.ROT>
32

>  <SCORE.INTER.VDW>
-16.811

>  <SCORE.INTER.norm>
0.330138

>  <SCORE.INTRA>
25.3331

>  <SCORE.INTRA.DIHEDRAL>
36.878

>  <SCORE.INTRA.DIHEDRAL.0>
47.3121

>  <SCORE.INTRA.POLAR>
1.47808

>  <SCORE.INTRA.POLAR.0>
-1.47808

>  <SCORE.INTRA.REPUL>
0

>  <SCORE.INTRA.REPUL.0>
0

>  <SCORE.INTRA.VDW>
1.8686

>  <SCORE.INTRA.VDW.0>
-2.78316

>  <SCORE.INTRA.norm>
0.506661

>  <SCORE.RESTR>
11.2126

>  <SCORE.RESTR.CAVITY>
11.2126

>  <SCORE.RESTR.norm>
0.224253

>  <SCORE.SYSTEM>
0

>  <SCORE.SYSTEM.CONST>
0

>  <SCORE.SYSTEM.DIHEDRAL>
0

>  <SCORE.SYSTEM.norm>
0

>  <SCORE.heavy>
50

>  <SCORE.norm>
1.06105

$$$$
