FB1.pdb
  RxDock  10062018243D
librxdock.so/0.1.0
 59 58  0  0  0  0  0  0  0  0999 V2000
    9.1077   -4.7601   -7.8384 C   0  0  0  0  0  0
    8.1823   -3.6852   -8.4037 C   0  0  0  0  0  0
    7.0980   -4.2877   -9.3122 C   0  0  0  0  0  0
    6.2811   -5.4158   -8.6342 C   0  0  0  0  0  0
    5.2178   -6.1084   -9.5562 C   0  0  0  0  0  0
    5.0555   -7.5748   -9.0936 C   0  0  0  0  0  0
    3.8175   -5.3623   -9.5791 C   0  0  0  0  0  0
    3.8483   -3.7607   -9.5655 C   0  0  0  0  0  0
    2.5658   -2.8208   -9.5659 C   0  0  0  0  0  0
    2.8646   -1.2300   -9.8842 C   0  0  0  0  0  0
    2.8825   -1.0334  -11.3992 C   0  0  0  0  0  0
    1.8636   -0.1801   -9.2204 C   0  0  0  0  0  0
    0.2793   -0.1082   -9.5421 C   0  0  0  0  0  0
   -0.8105   -0.1858   -8.4185 C   0  0  0  0  0  0
   -2.1185   -1.0598   -8.6911 C   0  0  0  0  0  0
   -3.3593   -1.1303   -7.7165 C   0  0  0  0  0  0
   -4.6332   -1.8999   -8.1549 C   0  0  0  0  0  0
   -5.9792   -1.5061   -7.4321 C   0  0  0  0  0  0
   -6.1547   -0.0227   -7.0841 C   0  0  0  0  0  0
   -7.5992    0.5377   -6.9516 C   0  0  0  0  0  0
   -8.6689   -0.2218   -6.1124 C   0  0  0  0  0  0
   -8.1961   -0.8220   -4.7957 C   0  0  0  0  0  0
   -9.8685    0.6129   -5.9108 N   0  0  0  0  0  0
   -7.4379    1.8162   -6.2858 O   0  0  0  0  0  0
   -7.0661   -1.9076   -8.2732 O   0  0  0  0  0  0
    0.0863    1.1734  -10.1641 O   0  0  0  0  0  0
    4.5742   -3.3784   -8.3658 O   0  0  0  0  0  0
    5.2804   -2.2190   -8.4152 C   0  0  0  0  0  0
    5.6176   -1.6244   -9.4213 O   0  0  0  0  0  0
    5.4930   -1.7309   -7.0088 C   0  0  0  0  0  0
    4.6722   -0.4709   -6.6908 C   0  0  0  0  0  0
    3.6949   -0.6831   -5.5276 C   0  0  0  0  0  0
    2.9522    0.5915   -5.2001 C   0  0  0  0  0  0
    2.8049    1.0168   -4.0594 O   0  0  0  0  0  0
    2.4671    1.2200   -6.2811 O   0  0  0  0  0  0
    5.6926    0.6168   -6.3278 C   0  0  0  0  0  0
    5.7272    1.7083   -6.8754 O   0  0  0  0  0  0
    6.5789    0.2530   -5.3908 O   0  0  0  0  0  0
    2.9467   -5.8908  -10.6572 O   0  0  0  0  0  0
    1.9045   -5.0993  -11.1102 C   0  0  0  0  0  0
    1.9326   -3.8769  -11.1678 O   0  0  0  0  0  0
    0.6871   -5.9276  -11.5416 C   0  0  0  0  0  0
   -0.2141   -6.4605  -10.3847 C   0  0  0  0  0  0
   -1.7220   -6.6143  -10.6546 C   0  0  0  0  0  0
   -2.0211   -7.1457  -12.0267 C   0  0  0  0  0  0
   -2.9369   -6.7787  -12.7500 O   0  0  0  0  0  0
   -1.1466   -8.0864  -12.4145 O   0  0  0  0  0  0
    0.2689   -7.7717   -9.7524 C   0  0  0  0  0  0
    0.0200   -8.0820   -8.6042 O   0  0  0  0  0  0
    0.9042   -8.6188  -10.5891 O   0  0  0  0  0  0
  -10.6934    0.0865   -6.1953 H   0  0  0  0  0  0
   -9.8268    1.4057   -6.5551 H   0  0  0  0  0  0
   -7.1297    2.4242   -6.9905 H   0  0  0  0  0  0
   -7.8997   -1.7109   -7.8075 H   0  0  0  0  0  0
   -0.8695    1.3185  -10.2637 H   0  0  0  0  0  0
    2.6085    0.7584   -7.1298 H   0  0  0  0  0  0
    6.4600   -0.6679   -5.0494 H   0  0  0  0  0  0
   -1.3914   -8.3378  -13.3301 H   0  0  0  0  0  0
    1.0072   -8.2981  -11.5125 H   0  0  0  0  0  0
  1  2  1  0  0  0
  2  3  1  0  0  0
  3  4  1  0  0  0
  4  5  1  0  0  0
  5  6  1  0  0  0
  5  7  1  0  0  0
  7  8  1  0  0  0
  7 39  1  0  0  0
  8  9  1  0  0  0
  8 27  1  0  0  0
  9 10  1  0  0  0
 10 11  1  0  0  0
 10 12  1  0  0  0
 12 13  1  0  0  0
 13 14  1  0  0  0
 13 26  1  0  0  0
 14 15  1  0  0  0
 15 16  1  0  0  0
 16 17  1  0  0  0
 17 18  1  0  0  0
 18 19  1  0  0  0
 18 25  1  0  0  0
 19 20  1  0  0  0
 20 21  1  0  0  0
 20 24  1  0  0  0
 21 22  1  0  0  0
 21 23  1  0  0  0
 23 51  1  0  0  0
 23 52  1  0  0  0
 24 53  1  0  0  0
 25 54  1  0  0  0
 26 55  1  0  0  0
 27 28  1  0  0  0
 28 29  2  0  0  0
 28 30  1  0  0  0
 30 31  1  0  0  0
 31 32  1  0  0  0
 31 36  1  0  0  0
 32 33  1  0  0  0
 33 34  2  0  0  0
 33 35  1  0  0  0
 35 56  1  0  0  0
 36 37  2  0  0  0
 36 38  1  0  0  0
 38 57  1  0  0  0
 39 40  1  0  0  0
 40 41  2  0  0  0
 40 42  1  0  0  0
 42 43  1  0  0  0
 43 44  1  0  0  0
 43 48  1  0  0  0
 44 45  1  0  0  0
 45 46  2  0  0  0
 45 47  1  0  0  0
 47 58  1  0  0  0
 48 49  2  0  0  0
 48 50  1  0  0  0
 50 59  1  0  0  0
M  END
>  <AUTHOR>
    GENERATED BY OPEN BABEL 2.4.1

>  <CHROM.1>
53.82935241,-176.80620227,149.87340593,38.44602553,-179.18515023,-159.00707093
-167.10315318,149.36606550,85.47197434,-62.48830229,125.05104614,-138.59391608
-172.13497965,-174.19307666,173.81645981,-157.96510130,36.08879600,154.32237891
176.88984858,47.55611366,40.88524418,78.06968901,127.76757691,-17.73582510
-109.54206020,120.03809784,177.33805600,126.08868237,-133.45216603,3.18345249
-0.29280096,33.11260732,78.34871583,148.26650765,39.70248426,152.99313382
-140.74909247,-177.16079509,1.21801087,0.82229815,-2.69969710,-8.57470937
-0.24933215,-0.02236055,0.52888746

>  <COMPND>
    UNNAMED

>  <MASTER>
        0    0    0    0    0    0    0    0  109    0  109    0

>  <Name>
FB1.pdb

>  <RI>
0

>  <Rbt.Current_Directory>
/home/fc/tossine/F10/p3/0_clust01

>  <Rbt.Executable>
rbdock/0.1.0

>  <Rbt.Library>
librxdock.so/0.1.0

>  <Rbt.Parameter_File>
/cluster/rxdock/data/scripts/dock.prm

>  <Rbt.Receptor>
rx_4.prm

>  <SCORE>
307.138

>  <SCORE.INTER>
259.994

>  <SCORE.INTER.CONST>
1

>  <SCORE.INTER.POLAR>
-1.01053

>  <SCORE.INTER.REPUL>
0.581597

>  <SCORE.INTER.ROT>
32

>  <SCORE.INTER.VDW>
223.122

>  <SCORE.INTER.norm>
5.19987

>  <SCORE.INTRA>
37.4125

>  <SCORE.INTRA.DIHEDRAL>
19.809

>  <SCORE.INTRA.DIHEDRAL.0>
47.3121

>  <SCORE.INTRA.POLAR>
1.41476

>  <SCORE.INTRA.POLAR.0>
-1.47808

>  <SCORE.INTRA.REPUL>
0

>  <SCORE.INTRA.REPUL.0>
0

>  <SCORE.INTRA.VDW>
22.6978

>  <SCORE.INTRA.VDW.0>
-2.78316

>  <SCORE.INTRA.norm>
0.74825

>  <SCORE.RESTR>
9.73132

>  <SCORE.RESTR.CAVITY>
9.73132

>  <SCORE.RESTR.norm>
0.194626

>  <SCORE.SYSTEM>
0

>  <SCORE.SYSTEM.CONST>
0

>  <SCORE.SYSTEM.DIHEDRAL>
0

>  <SCORE.SYSTEM.norm>
0

>  <SCORE.heavy>
50

>  <SCORE.norm>
6.14275

$$$$
