FB1.pdb
  RxDock  10062016003D
librxdock.so/0.1.0
 59 58  0  0  0  0  0  0  0  0999 V2000
   -8.6322   -1.0682   16.9692 C   0  0  0  0  0  0
   -9.0631   -2.4022   16.3643 C   0  0  0  0  0  0
  -10.0720   -2.2092   15.2201 C   0  0  0  0  0  0
  -10.5654   -3.5406   14.6006 C   0  0  0  0  0  0
  -12.1134   -3.6258   14.3622 C   0  0  0  0  0  0
  -12.4731   -2.7040   13.1742 C   0  0  0  0  0  0
  -12.6352   -5.1033   14.1123 C   0  0  0  0  0  0
  -12.3815   -5.7264   12.6585 C   0  0  0  0  0  0
  -11.0230   -6.3958   12.1742 C   0  0  0  0  0  0
  -10.3062   -5.6661   10.8799 C   0  0  0  0  0  0
  -10.4377   -6.5883    9.6690 C   0  0  0  0  0  0
  -10.8444   -4.2118   10.5056 C   0  0  0  0  0  0
  -10.0259   -3.1452    9.6050 C   0  0  0  0  0  0
   -9.8170   -1.6566   10.0482 C   0  0  0  0  0  0
  -10.9461   -0.9669   10.9421 C   0  0  0  0  0  0
  -11.0114    0.5801   11.2533 C   0  0  0  0  0  0
  -11.0818    1.5937   10.0806 C   0  0  0  0  0  0
   -9.7715    1.7684    9.2194 C   0  0  0  0  0  0
   -9.5997    0.8026    8.0403 C   0  0  0  0  0  0
  -10.8773    0.2177    7.3741 C   0  0  0  0  0  0
  -11.6581    1.0373    6.3046 C   0  0  0  0  0  0
  -12.4227    0.2347    5.2612 C   0  0  0  0  0  0
  -12.5327    2.0381    6.9449 N   0  0  0  0  0  0
  -10.4180   -0.9683    6.6766 O   0  0  0  0  0  0
   -9.7489    3.1087    8.7165 O   0  0  0  0  0  0
   -8.7015   -3.6934    9.4953 O   0  0  0  0  0  0
  -13.3788   -6.7691   12.4836 O   0  0  0  0  0  0
  -14.3277   -6.5622   11.5338 C   0  0  0  0  0  0
  -15.5319   -6.6141   11.6966 O   0  0  0  0  0  0
  -13.6434   -6.1548   10.2582 C   0  0  0  0  0  0
  -14.3922   -6.6384    9.0061 C   0  0  0  0  0  0
  -13.6536   -6.2903    7.7073 C   0  0  0  0  0  0
  -14.5105   -6.5834    6.4977 C   0  0  0  0  0  0
  -14.6978   -7.7121    6.0565 O   0  0  0  0  0  0
  -15.0524   -5.4864    5.9483 O   0  0  0  0  0  0
  -14.5135   -8.1618    9.1493 C   0  0  0  0  0  0
  -13.6687   -8.8491    9.7028 O   0  0  0  0  0  0
  -15.6030   -8.6866    8.5717 O   0  0  0  0  0  0
  -12.1914   -6.0178   15.1924 O   0  0  0  0  0  0
  -13.1515   -6.5734   16.0216 C   0  0  0  0  0  0
  -14.2777   -6.1217   16.1833 O   0  0  0  0  0  0
  -12.6496   -7.8383   16.7304 C   0  0  0  0  0  0
  -12.1332   -8.9776   15.7977 C   0  0  0  0  0  0
  -11.9282   -8.6545   14.3064 C   0  0  0  0  0  0
  -13.0229   -9.1961   13.4330 C   0  0  0  0  0  0
  -12.8793  -10.0102   12.5313 O   0  0  0  0  0  0
  -14.2280   -8.7012   13.7544 O   0  0  0  0  0  0
  -10.8592   -9.6758   16.2892 C   0  0  0  0  0  0
  -10.6193  -10.8459   16.0656 O   0  0  0  0  0  0
   -9.9599   -8.8768   16.9009 O   0  0  0  0  0  0
  -13.4272    1.6049    7.1699 H   0  0  0  0  0  0
  -12.7561    2.7630    6.2593 H   0  0  0  0  0  0
   -9.6770   -0.6538    6.1169 H   0  0  0  0  0  0
   -9.9945    3.0839    7.7733 H   0  0  0  0  0  0
   -8.1047   -2.9824    9.2077 H   0  0  0  0  0  0
  -15.5965   -5.6442    5.1530 H   0  0  0  0  0  0
  -15.7289   -9.6539    8.7365 H   0  0  0  0  0  0
  -14.8916   -9.3525   13.4432 H   0  0  0  0  0  0
  -10.2177   -7.9308   16.9703 H   0  0  0  0  0  0
  1  2  1  0  0  0
  2  3  1  0  0  0
  3  4  1  0  0  0
  4  5  1  0  0  0
  5  6  1  0  0  0
  5  7  1  0  0  0
  7  8  1  0  0  0
  7 39  1  0  0  0
  8  9  1  0  0  0
  8 27  1  0  0  0
  9 10  1  0  0  0
 10 11  1  0  0  0
 10 12  1  0  0  0
 12 13  1  0  0  0
 13 14  1  0  0  0
 13 26  1  0  0  0
 14 15  1  0  0  0
 15 16  1  0  0  0
 16 17  1  0  0  0
 17 18  1  0  0  0
 18 19  1  0  0  0
 18 25  1  0  0  0
 19 20  1  0  0  0
 20 21  1  0  0  0
 20 24  1  0  0  0
 21 22  1  0  0  0
 21 23  1  0  0  0
 23 51  1  0  0  0
 23 52  1  0  0  0
 24 53  1  0  0  0
 25 54  1  0  0  0
 26 55  1  0  0  0
 27 28  1  0  0  0
 28 29  2  0  0  0
 28 30  1  0  0  0
 30 31  1  0  0  0
 31 32  1  0  0  0
 31 36  1  0  0  0
 32 33  1  0  0  0
 33 34  2  0  0  0
 33 35  1  0  0  0
 35 56  1  0  0  0
 36 37  2  0  0  0
 36 38  1  0  0  0
 38 57  1  0  0  0
 39 40  1  0  0  0
 40 41  2  0  0  0
 40 42  1  0  0  0
 42 43  1  0  0  0
 43 44  1  0  0  0
 43 48  1  0  0  0
 44 45  1  0  0  0
 45 46  2  0  0  0
 45 47  1  0  0  0
 47 58  1  0  0  0
 48 49  2  0  0  0
 48 50  1  0  0  0
 50 59  1  0  0  0
M  END
>  <AUTHOR>
    GENERATED BY OPEN BABEL 2.4.1

>  <CHROM.1>
-178.49587831,134.77433992,72.17815127,-77.42184561,81.98139899,114.14003308
-119.50894617,113.25398066,-109.55223821,160.55371737,-130.50756605,-30.72799254
-162.82627328,-168.72945002,57.53534239,-70.96705431,87.61107376,27.49817180
-104.07514382,82.38064321,151.59485434,-53.20389567,-86.62451049,-126.29907770
147.71069739,-176.81392684,-171.14536887,-32.54780709,-76.80468475,178.77204347
-174.40131837,-20.54468875,-56.52027878,10.92802574,-103.25159927,148.72012744
-118.96415156,-155.88537385,0.21660535,-12.01004515,-4.68945583,11.40809172
-1.85595140,-1.06645859,-0.89833326

>  <COMPND>
    UNNAMED

>  <MASTER>
        0    0    0    0    0    0    0    0  109    0  109    0

>  <Name>
FB1.pdb

>  <RI>
0

>  <Rbt.Current_Directory>
/home/fc/tossine/F10/p3/0_clust01

>  <Rbt.Executable>
rbdock/0.1.0

>  <Rbt.Library>
librxdock.so/0.1.0

>  <Rbt.Parameter_File>
/cluster/rxdock/data/scripts/dock.prm

>  <Rbt.Receptor>
rx_0.prm

>  <SCORE>
104.831

>  <SCORE.INTER>
62.0201

>  <SCORE.INTER.CONST>
1

>  <SCORE.INTER.POLAR>
-0.354548

>  <SCORE.INTER.REPUL>
1.3972

>  <SCORE.INTER.ROT>
32

>  <SCORE.INTER.VDW>
18.8396

>  <SCORE.INTER.norm>
1.2404

>  <SCORE.INTRA>
35.2363

>  <SCORE.INTRA.DIHEDRAL>
57.5589

>  <SCORE.INTRA.DIHEDRAL.0>
47.3121

>  <SCORE.INTRA.POLAR>
1.47808

>  <SCORE.INTRA.POLAR.0>
-1.47808

>  <SCORE.INTRA.REPUL>
0

>  <SCORE.INTRA.REPUL.0>
0

>  <SCORE.INTRA.VDW>
1.43134

>  <SCORE.INTRA.VDW.0>
-2.78316

>  <SCORE.INTRA.norm>
0.704725

>  <SCORE.RESTR>
7.57466

>  <SCORE.RESTR.CAVITY>
7.57466

>  <SCORE.RESTR.norm>
0.151493

>  <SCORE.SYSTEM>
0

>  <SCORE.SYSTEM.CONST>
0

>  <SCORE.SYSTEM.DIHEDRAL>
0

>  <SCORE.SYSTEM.norm>
0

>  <SCORE.heavy>
50

>  <SCORE.norm>
2.09662

$$$$
