FB1.pdb
  RxDock  10092018143D
librxdock.so/0.1.0
 59 58  0  0  0  0  0  0  0  0999 V2000
    5.8767    0.9852    2.6923 C   0  0  0  0  0  0
    4.8760    2.1143    2.4574 C   0  0  0  0  0  0
    3.4242    1.6238    2.5829 C   0  0  0  0  0  0
    3.0044    1.3030    4.0391 C   0  0  0  0  0  0
    2.2906    2.4771    4.7957 C   0  0  0  0  0  0
    3.3189    3.6112    5.0125 C   0  0  0  0  0  0
    0.9983    3.0177    4.0503 C   0  0  0  0  0  0
   -0.1051    1.9342    3.6326 C   0  0  0  0  0  0
    0.2058    0.5073    3.0037 C   0  0  0  0  0  0
   -0.2299    0.3299    1.4225 C   0  0  0  0  0  0
    1.0053   -0.0796    0.6220 C   0  0  0  0  0  0
   -1.4192   -0.6926    1.1313 C   0  0  0  0  0  0
   -1.5308   -2.1664    1.7901 C   0  0  0  0  0  0
   -0.6878   -2.5939    3.0402 C   0  0  0  0  0  0
   -1.1657   -3.8672    3.8765 C   0  0  0  0  0  0
   -1.7491   -5.1859    3.2320 C   0  0  0  0  0  0
   -1.0755   -5.7816    1.9676 C   0  0  0  0  0  0
   -1.9663   -5.8692    0.6684 C   0  0  0  0  0  0
   -3.2591   -6.6863    0.7849 C   0  0  0  0  0  0
   -3.1516   -8.2375    0.8048 C   0  0  0  0  0  0
   -2.0335   -8.9637   -0.0001 C   0  0  0  0  0  0
   -0.6037   -8.7371    0.4708 C   0  0  0  0  0  0
   -2.3260  -10.4044   -0.1234 N   0  0  0  0  0  0
   -2.8918   -8.5703    2.1924 O   0  0  0  0  0  0
   -2.3055   -4.5351    0.2747 O   0  0  0  0  0  0
   -2.9023   -2.2830    2.2047 O   0  0  0  0  0  0
   -0.8615    1.6389    4.8382 O   0  0  0  0  0  0
   -2.0024    0.9168    4.6892 C   0  0  0  0  0  0
   -2.1874    0.0212    3.8873 O   0  0  0  0  0  0
   -2.9757    1.3396    5.7547 C   0  0  0  0  0  0
   -4.3447    1.7368    5.1797 C   0  0  0  0  0  0
   -5.3891    1.9973    6.2728 C   0  0  0  0  0  0
   -6.1274    0.7295    6.6346 C   0  0  0  0  0  0
   -6.2078    0.2943    7.7782 O   0  0  0  0  0  0
   -6.6922    0.1209    5.5812 O   0  0  0  0  0  0
   -4.1054    3.0162    4.3662 C   0  0  0  0  0  0
   -4.6475    4.0806    4.6223 O   0  0  0  0  0  0
   -3.2873    2.8591    3.3164 O   0  0  0  0  0  0
    0.4015    4.1647    4.7771 O   0  0  0  0  0  0
    0.7982    5.4448    4.4275 C   0  0  0  0  0  0
    1.1597    5.7803    3.3072 O   0  0  0  0  0  0
    0.7362    6.4190    5.6114 C   0  0  0  0  0  0
   -0.6898    6.9116    6.0092 C   0  0  0  0  0  0
   -1.4094    6.1886    7.1624 C   0  0  0  0  0  0
   -1.5251    4.7075    6.9447 C   0  0  0  0  0  0
   -2.4463    4.1400    6.3739 O   0  0  0  0  0  0
   -0.4745    4.0329    7.4363 O   0  0  0  0  0  0
   -0.7904    8.4169    6.2856 C   0  0  0  0  0  0
   -1.0136    8.8719    7.3900 O   0  0  0  0  0  0
   -0.5075    9.2186    5.2375 O   0  0  0  0  0  0
   -1.6506  -10.8293   -0.7574 H   0  0  0  0  0  0
   -3.2298  -10.5156   -0.5883 H   0  0  0  0  0  0
   -2.0487   -8.1155    2.4014 H   0  0  0  0  0  0
   -2.7455   -4.0985    1.0271 H   0  0  0  0  0  0
   -3.1242   -1.4987    2.7338 H   0  0  0  0  0  0
   -7.1842   -0.6970    5.7871 H   0  0  0  0  0  0
   -3.1256    3.6845    2.7955 H   0  0  0  0  0  0
    0.1814    4.7033    7.7222 H   0  0  0  0  0  0
   -0.3980    8.7593    4.3753 H   0  0  0  0  0  0
  1  2  1  0  0  0
  2  3  1  0  0  0
  3  4  1  0  0  0
  4  5  1  0  0  0
  5  6  1  0  0  0
  5  7  1  0  0  0
  7  8  1  0  0  0
  7 39  1  0  0  0
  8  9  1  0  0  0
  8 27  1  0  0  0
  9 10  1  0  0  0
 10 11  1  0  0  0
 10 12  1  0  0  0
 12 13  1  0  0  0
 13 14  1  0  0  0
 13 26  1  0  0  0
 14 15  1  0  0  0
 15 16  1  0  0  0
 16 17  1  0  0  0
 17 18  1  0  0  0
 18 19  1  0  0  0
 18 25  1  0  0  0
 19 20  1  0  0  0
 20 21  1  0  0  0
 20 24  1  0  0  0
 21 22  1  0  0  0
 21 23  1  0  0  0
 23 51  1  0  0  0
 23 52  1  0  0  0
 24 53  1  0  0  0
 25 54  1  0  0  0
 26 55  1  0  0  0
 27 28  1  0  0  0
 28 29  2  0  0  0
 28 30  1  0  0  0
 30 31  1  0  0  0
 31 32  1  0  0  0
 31 36  1  0  0  0
 32 33  1  0  0  0
 33 34  2  0  0  0
 33 35  1  0  0  0
 35 56  1  0  0  0
 36 37  2  0  0  0
 36 38  1  0  0  0
 38 57  1  0  0  0
 39 40  1  0  0  0
 40 41  2  0  0  0
 40 42  1  0  0  0
 42 43  1  0  0  0
 43 44  1  0  0  0
 43 48  1  0  0  0
 44 45  1  0  0  0
 45 46  2  0  0  0
 45 47  1  0  0  0
 47 58  1  0  0  0
 48 49  2  0  0  0
 48 50  1  0  0  0
 50 59  1  0  0  0
M  END
>  <AUTHOR>
    GENERATED BY OPEN BABEL 2.4.1

>  <CHROM.1>
71.67962762,94.28309320,-67.26342310,52.34288971,-42.23026471,91.98567112
-110.59594635,169.00638687,123.28219536,-45.45910069,15.81053495,161.79197479
-51.08852699,39.28077939,42.79686568,-118.43132937,-58.30317908,-75.00574687
-56.26898706,-32.86698618,66.64511292,-60.26746208,172.36495021,35.24642421
127.24946329,172.77988503,-89.35823647,-119.11141773,125.32910198,-179.40573694
-179.48693431,30.05479667,-76.15071186,96.83888547,-55.38963116,-112.48362184
-89.41993927,-7.28801059,8.72362804,-1.20728661,0.50842485,3.80632047,-1.44480683
-0.33462037,-2.75667350

>  <COMPND>
    UNNAMED

>  <MASTER>
        0    0    0    0    0    0    0    0  109    0  109    0

>  <Name>
FB1.pdb

>  <RI>
0

>  <Rbt.Current_Directory>
/home/fc/tossine/F10/p3/1_clust04

>  <Rbt.Executable>
rbdock/0.1.0

>  <Rbt.Library>
librxdock.so/0.1.0

>  <Rbt.Parameter_File>
/cluster/rxdock/data/scripts/dock.prm

>  <Rbt.Receptor>
rx_0.prm

>  <SCORE>
18.3821

>  <SCORE.INTER>
1.72061

>  <SCORE.INTER.CONST>
1

>  <SCORE.INTER.POLAR>
-1.40123

>  <SCORE.INTER.REPUL>
0.10009

>  <SCORE.INTER.ROT>
32

>  <SCORE.INTER.VDW>
-31.4157

>  <SCORE.INTER.norm>
0.0344121

>  <SCORE.INTRA>
15.4863

>  <SCORE.INTRA.DIHEDRAL>
25.1539

>  <SCORE.INTRA.DIHEDRAL.0>
47.3121

>  <SCORE.INTRA.POLAR>
-0.195884

>  <SCORE.INTRA.POLAR.0>
-1.47808

>  <SCORE.INTRA.REPUL>
0.00672975

>  <SCORE.INTRA.REPUL.0>
0

>  <SCORE.INTRA.VDW>
3.54174

>  <SCORE.INTRA.VDW.0>
-2.78316

>  <SCORE.INTRA.norm>
0.309727

>  <SCORE.RESTR>
1.17518

>  <SCORE.RESTR.CAVITY>
1.17518

>  <SCORE.RESTR.norm>
0.0235036

>  <SCORE.SYSTEM>
0

>  <SCORE.SYSTEM.CONST>
0

>  <SCORE.SYSTEM.DIHEDRAL>
0

>  <SCORE.SYSTEM.norm>
0

>  <SCORE.heavy>
50

>  <SCORE.norm>
0.367643

$$$$
