FB1.pdb
  RxDock  09132020173D
librxdock.so/0.1.0
 59 58  0  0  0  0  0  0  0  0999 V2000
    7.7562    5.2206    5.7126 C   0  0  0  0  0  0
    7.4727    6.1042    4.5000 C   0  0  0  0  0  0
    6.9700    5.2823    3.3017 C   0  0  0  0  0  0
    7.8834    4.0817    2.9495 C   0  0  0  0  0  0
    7.2221    2.9936    2.0335 C   0  0  0  0  0  0
    7.1676    3.5427    0.5892 C   0  0  0  0  0  0
    7.9632    1.5913    2.0799 C   0  0  0  0  0  0
    7.1004    0.3010    1.6837 C   0  0  0  0  0  0
    5.6118    0.0133    2.1627 C   0  0  0  0  0  0
    4.4897    1.1117    1.6572 C   0  0  0  0  0  0
    3.5575    0.4282    0.6582 C   0  0  0  0  0  0
    3.6266    1.8125    2.8012 C   0  0  0  0  0  0
    2.0481    1.5468    3.0386 C   0  0  0  0  0  0
    1.5105    0.2567    3.7477 C   0  0  0  0  0  0
   -0.0576   -0.0386    3.6955 C   0  0  0  0  0  0
   -0.7013   -1.3019    2.9995 C   0  0  0  0  0  0
   -0.4330   -1.5652    1.4942 C   0  0  0  0  0  0
   -0.4832   -3.0695    1.0211 C   0  0  0  0  0  0
   -1.8592   -3.7464    1.0538 C   0  0  0  0  0  0
   -1.9361   -5.2401    1.4792 C   0  0  0  0  0  0
   -2.4478   -5.6340    2.8964 C   0  0  0  0  0  0
   -2.3102   -7.0998    3.2833 C   0  0  0  0  0  0
   -1.8611   -4.7587    3.9290 N   0  0  0  0  0  0
   -2.8851   -5.8363    0.5584 O   0  0  0  0  0  0
    0.0210   -3.1286   -0.3176 O   0  0  0  0  0  0
    1.6095    2.6390    3.8640 O   0  0  0  0  0  0
    7.0186    0.2969    0.2326 O   0  0  0  0  0  0
    7.7459   -0.6442   -0.4236 C   0  0  0  0  0  0
    8.7092   -0.4402   -1.1377 O   0  0  0  0  0  0
    7.2246   -2.0016   -0.0402 C   0  0  0  0  0  0
    8.0799   -2.6782    1.0430 C   0  0  0  0  0  0
    8.1349   -4.2028    0.8825 C   0  0  0  0  0  0
    7.6445   -4.9003    2.1300 C   0  0  0  0  0  0
    7.5984   -4.3655    3.2325 O   0  0  0  0  0  0
    7.2597   -6.1675    1.9174 O   0  0  0  0  0  0
    9.4879   -2.0839    0.9009 C   0  0  0  0  0  0
    9.9957   -1.3623    1.7458 O   0  0  0  0  0  0
   10.1000   -2.3816   -0.2535 O   0  0  0  0  0  0
    9.2522    1.6424    1.3478 O   0  0  0  0  0  0
   10.2866    2.3896    1.8860 C   0  0  0  0  0  0
   10.2635    2.9167    2.9906 O   0  0  0  0  0  0
   11.4887    2.4905    0.9378 C   0  0  0  0  0  0
   11.1679    2.3361   -0.5813 C   0  0  0  0  0  0
   12.0512    3.0957   -1.5879 C   0  0  0  0  0  0
   11.6351    2.8785   -3.0142 C   0  0  0  0  0  0
   10.4874    2.7179   -3.4060 O   0  0  0  0  0  0
   12.6760    2.8953   -3.8607 O   0  0  0  0  0  0
   11.0712    0.8851   -1.0684 C   0  0  0  0  0  0
   11.1348    0.5770   -2.2422 O   0  0  0  0  0  0
   11.0173   -0.0499   -0.0967 O   0  0  0  0  0  0
   -1.6507   -5.3139    4.7573 H   0  0  0  0  0  0
   -2.5725   -4.0904    4.2335 H   0  0  0  0  0  0
   -3.6831   -5.2707    0.6261 H   0  0  0  0  0  0
    0.2361   -4.0575   -0.5209 H   0  0  0  0  0  0
    1.4151    3.3947    3.2845 H   0  0  0  0  0  0
    7.0868   -6.3995    0.9848 H   0  0  0  0  0  0
    9.5015   -2.7424   -0.9538 H   0  0  0  0  0  0
   12.3512    3.2886   -4.6981 H   0  0  0  0  0  0
   10.6530    0.2584    0.7626 H   0  0  0  0  0  0
  1  2  1  0  0  0
  2  3  1  0  0  0
  3  4  1  0  0  0
  4  5  1  0  0  0
  5  6  1  0  0  0
  5  7  1  0  0  0
  7  8  1  0  0  0
  7 39  1  0  0  0
  8  9  1  0  0  0
  8 27  1  0  0  0
  9 10  1  0  0  0
 10 11  1  0  0  0
 10 12  1  0  0  0
 12 13  1  0  0  0
 13 14  1  0  0  0
 13 26  1  0  0  0
 14 15  1  0  0  0
 15 16  1  0  0  0
 16 17  1  0  0  0
 17 18  1  0  0  0
 18 19  1  0  0  0
 18 25  1  0  0  0
 19 20  1  0  0  0
 20 21  1  0  0  0
 20 24  1  0  0  0
 21 22  1  0  0  0
 21 23  1  0  0  0
 23 51  1  0  0  0
 23 52  1  0  0  0
 24 53  1  0  0  0
 25 54  1  0  0  0
 26 55  1  0  0  0
 27 28  1  0  0  0
 28 29  2  0  0  0
 28 30  1  0  0  0
 30 31  1  0  0  0
 31 32  1  0  0  0
 31 36  1  0  0  0
 32 33  1  0  0  0
 33 34  2  0  0  0
 33 35  1  0  0  0
 35 56  1  0  0  0
 36 37  2  0  0  0
 36 38  1  0  0  0
 38 57  1  0  0  0
 39 40  1  0  0  0
 40 41  2  0  0  0
 40 42  1  0  0  0
 42 43  1  0  0  0
 43 44  1  0  0  0
 43 48  1  0  0  0
 44 45  1  0  0  0
 45 46  2  0  0  0
 45 47  1  0  0  0
 47 58  1  0  0  0
 48 49  2  0  0  0
 48 50  1  0  0  0
 50 59  1  0  0  0
M  END
>  <AUTHOR>
    GENERATED BY OPEN BABEL 2.4.1

>  <CHROM.1>
-51.95154704,163.09841682,75.46241023,156.47156522,-43.45839447,69.41657490
62.83573533,107.84366279,111.91909591,-110.64888152,77.42400531,-168.95328843
83.78241071,117.13250291,-57.74016845,152.02217181,68.11080463,-142.39580613
163.76769516,104.10444242,-172.05579684,-53.36566754,-141.70219706,-112.28774719
-99.26134975,-146.45366974,-122.74801409,112.53058830,-20.36664569,-17.46583469
14.73829991,7.17575959,25.73419685,149.04903131,-179.40938532,-162.67221115
33.78492192,-146.17193176,25.95336018,5.96125803,-0.24705695,1.26610796,0.37052942
0.34616730,0.33438200

>  <COMPND>
    UNNAMED

>  <MASTER>
        0    0    0    0    0    0    0    0  109    0  109    0

>  <Name>
FB1.pdb

>  <RI>
0

>  <Rbt.Current_Directory>
/home/fc/tossine/F10/p3/1_clust04

>  <Rbt.Executable>
rbdock/0.1.0

>  <Rbt.Library>
librxdock.so/0.1.0

>  <Rbt.Parameter_File>
/cluster/rxdock/data/scripts/dock.prm

>  <Rbt.Receptor>
rx_4.prm

>  <SCORE>
43.2942

>  <SCORE.INTER>
-1.62281

>  <SCORE.INTER.CONST>
1

>  <SCORE.INTER.POLAR>
-4.51187

>  <SCORE.INTER.REPUL>
0.0303481

>  <SCORE.INTER.ROT>
32

>  <SCORE.INTER.VDW>
-23.8342

>  <SCORE.INTER.norm>
-0.0324561

>  <SCORE.INTRA>
38.9311

>  <SCORE.INTRA.DIHEDRAL>
59.9022

>  <SCORE.INTRA.DIHEDRAL.0>
47.3121

>  <SCORE.INTRA.POLAR>
0.741803

>  <SCORE.INTRA.POLAR.0>
-1.47808

>  <SCORE.INTRA.REPUL>
0

>  <SCORE.INTRA.REPUL.0>
0

>  <SCORE.INTRA.VDW>
6.4579

>  <SCORE.INTRA.VDW.0>
-2.78316

>  <SCORE.INTRA.norm>
0.778622

>  <SCORE.RESTR>
5.98589

>  <SCORE.RESTR.CAVITY>
5.98589

>  <SCORE.RESTR.norm>
0.119718

>  <SCORE.SYSTEM>
0

>  <SCORE.SYSTEM.CONST>
0

>  <SCORE.SYSTEM.DIHEDRAL>
0

>  <SCORE.SYSTEM.norm>
0

>  <SCORE.heavy>
50

>  <SCORE.norm>
0.865884

$$$$
