FB1.pdb
  RxDock  10092022023D
librxdock.so/0.1.0
 59 58  0  0  0  0  0  0  0  0999 V2000
   -6.5009   -0.4664    8.2788 C   0  0  0  0  0  0
   -7.9651   -0.7341    7.9384 C   0  0  0  0  0  0
   -8.1181   -1.3822    6.5525 C   0  0  0  0  0  0
   -7.5070   -0.5391    5.4056 C   0  0  0  0  0  0
   -6.8568   -1.3720    4.2463 C   0  0  0  0  0  0
   -7.7138   -1.1833    2.9732 C   0  0  0  0  0  0
   -5.3401   -0.9961    3.9702 C   0  0  0  0  0  0
   -4.5648   -1.8676    2.8721 C   0  0  0  0  0  0
   -2.9900   -1.8721    2.6527 C   0  0  0  0  0  0
   -2.1034   -1.3353    3.9360 C   0  0  0  0  0  0
   -1.1560   -2.4518    4.3721 C   0  0  0  0  0  0
   -1.2758    0.0089    3.7058 C   0  0  0  0  0  0
    0.1597    0.3187    4.3855 C   0  0  0  0  0  0
    1.0501    1.5332    3.9517 C   0  0  0  0  0  0
    2.4878    1.6974    4.6264 C   0  0  0  0  0  0
    3.7552    2.2811    3.8864 C   0  0  0  0  0  0
    4.5370    1.3869    2.8880 C   0  0  0  0  0  0
    5.6018    0.4015    3.5079 C   0  0  0  0  0  0
    6.9906    0.4049    2.8568 C   0  0  0  0  0  0
    7.8716   -0.8693    2.9923 C   0  0  0  0  0  0
    9.4194   -0.7516    3.1183 C   0  0  0  0  0  0
    9.9614   -0.3877    4.4936 C   0  0  0  0  0  0
   10.0828   -1.9599    2.5928 N   0  0  0  0  0  0
    7.4396   -1.4848    4.2326 O   0  0  0  0  0  0
    5.7489    0.7256    4.8946 O   0  0  0  0  0  0
   -0.1304    0.5436    5.7754 O   0  0  0  0  0  0
   -4.8935   -3.2560    3.1492 O   0  0  0  0  0  0
   -4.2310   -4.2015    2.4332 C   0  0  0  0  0  0
   -3.8554   -4.0993    1.2809 O   0  0  0  0  0  0
   -3.9448   -5.3690    3.3367 C   0  0  0  0  0  0
   -3.5997   -6.6480    2.5572 C   0  0  0  0  0  0
   -2.6703   -7.5829    3.3419 C   0  0  0  0  0  0
   -1.9898   -8.5714    2.4237 C   0  0  0  0  0  0
   -2.1461   -8.5863    1.2076 O   0  0  0  0  0  0
   -1.1918   -9.4364    3.0671 O   0  0  0  0  0  0
   -4.9377   -7.3478    2.2812 C   0  0  0  0  0  0
   -5.5205   -7.2739    1.2101 O   0  0  0  0  0  0
   -5.4425   -8.0098    3.3313 O   0  0  0  0  0  0
   -5.1837    0.4597    3.7338 O   0  0  0  0  0  0
   -4.9659    1.2849    4.8246 C   0  0  0  0  0  0
   -5.3842    1.0700    5.9547 O   0  0  0  0  0  0
   -4.1297    2.5200    4.4646 C   0  0  0  0  0  0
   -4.7037    3.4180    3.3250 C   0  0  0  0  0  0
   -6.2253    3.4051    3.0909 C   0  0  0  0  0  0
   -6.5979    3.5683    1.6456 C   0  0  0  0  0  0
   -5.9157    4.1158    0.7903 O   0  0  0  0  0  0
   -7.7884    3.0207    1.3575 O   0  0  0  0  0  0
   -4.2679    4.8870    3.3901 C   0  0  0  0  0  0
   -3.7135    5.3690    4.3581 O   0  0  0  0  0  0
   -4.4433    5.5943    2.2542 O   0  0  0  0  0  0
    9.7697   -2.1240    1.6370 H   0  0  0  0  0  0
    9.7519   -2.7703    3.1212 H   0  0  0  0  0  0
    6.6259   -1.9768    3.9935 H   0  0  0  0  0  0
    4.8856    0.5996    5.3297 H   0  0  0  0  0  0
   -0.4111   -0.3015    6.1647 H   0  0  0  0  0  0
   -1.2459   -9.4074    4.0416 H   0  0  0  0  0  0
   -6.3001   -8.4695    3.1525 H   0  0  0  0  0  0
   -7.9477    3.1797    0.4032 H   0  0  0  0  0  0
   -5.1295    5.2443    1.6436 H   0  0  0  0  0  0
  1  2  1  0  0  0
  2  3  1  0  0  0
  3  4  1  0  0  0
  4  5  1  0  0  0
  5  6  1  0  0  0
  5  7  1  0  0  0
  7  8  1  0  0  0
  7 39  1  0  0  0
  8  9  1  0  0  0
  8 27  1  0  0  0
  9 10  1  0  0  0
 10 11  1  0  0  0
 10 12  1  0  0  0
 12 13  1  0  0  0
 13 14  1  0  0  0
 13 26  1  0  0  0
 14 15  1  0  0  0
 15 16  1  0  0  0
 16 17  1  0  0  0
 17 18  1  0  0  0
 18 19  1  0  0  0
 18 25  1  0  0  0
 19 20  1  0  0  0
 20 21  1  0  0  0
 20 24  1  0  0  0
 21 22  1  0  0  0
 21 23  1  0  0  0
 23 51  1  0  0  0
 23 52  1  0  0  0
 24 53  1  0  0  0
 25 54  1  0  0  0
 26 55  1  0  0  0
 27 28  1  0  0  0
 28 29  2  0  0  0
 28 30  1  0  0  0
 30 31  1  0  0  0
 31 32  1  0  0  0
 31 36  1  0  0  0
 32 33  1  0  0  0
 33 34  2  0  0  0
 33 35  1  0  0  0
 35 56  1  0  0  0
 36 37  2  0  0  0
 36 38  1  0  0  0
 38 57  1  0  0  0
 39 40  1  0  0  0
 40 41  2  0  0  0
 40 42  1  0  0  0
 42 43  1  0  0  0
 43 44  1  0  0  0
 43 48  1  0  0  0
 44 45  1  0  0  0
 45 46  2  0  0  0
 45 47  1  0  0  0
 47 58  1  0  0  0
 48 49  2  0  0  0
 48 50  1  0  0  0
 50 59  1  0  0  0
M  END
>  <AUTHOR>
    GENERATED BY OPEN BABEL 2.4.1

>  <CHROM.1>
-57.61322914,144.92990041,112.17258441,175.83681619,-166.63139409,88.78055738
20.40408745,-172.94451534,120.99138585,-146.35306765,169.43615771,-176.41094585
68.69202217,146.24792895,-77.57940947,-83.09091898,-131.36539486,-155.51277565
61.01921285,-145.47251390,79.42094041,81.15821583,54.68889007,-33.47194485
162.29646375,151.36896879,-161.17899335,99.80326968,1.75575088,8.36060907
-179.37730597,-30.03927505,56.86759284,26.17726276,-145.95845385,-11.84744357
-25.22363335,179.67476901,23.48196867,-1.87197822,-1.05500149,3.59644070
3.09711806,-0.01226813,-3.04667420

>  <COMPND>
    UNNAMED

>  <MASTER>
        0    0    0    0    0    0    0    0  109    0  109    0

>  <Name>
FB1.pdb

>  <RI>
0

>  <Rbt.Current_Directory>
/home/fc/tossine/F10/p3/1_clust04

>  <Rbt.Executable>
rbdock/0.1.0

>  <Rbt.Library>
librxdock.so/0.1.0

>  <Rbt.Parameter_File>
/cluster/rxdock/data/scripts/dock.prm

>  <Rbt.Receptor>
rx_4.prm

>  <SCORE>
56.3311

>  <SCORE.INTER>
25.9677

>  <SCORE.INTER.CONST>
1

>  <SCORE.INTER.POLAR>
-0.975559

>  <SCORE.INTER.REPUL>
0.0921926

>  <SCORE.INTER.ROT>
32

>  <SCORE.INTER.VDW>
-8.57632

>  <SCORE.INTER.norm>
0.519355

>  <SCORE.INTRA>
30.2564

>  <SCORE.INTRA.DIHEDRAL>
39.5258

>  <SCORE.INTRA.DIHEDRAL.0>
47.3121

>  <SCORE.INTRA.POLAR>
1.47808

>  <SCORE.INTRA.POLAR.0>
-1.47808

>  <SCORE.INTRA.REPUL>
0

>  <SCORE.INTRA.REPUL.0>
0

>  <SCORE.INTRA.VDW>
5.46803

>  <SCORE.INTRA.VDW.0>
-2.78316

>  <SCORE.INTRA.norm>
0.605128

>  <SCORE.RESTR>
0.106933

>  <SCORE.RESTR.CAVITY>
0.106933

>  <SCORE.RESTR.norm>
0.00213865

>  <SCORE.SYSTEM>
0

>  <SCORE.SYSTEM.CONST>
0

>  <SCORE.SYSTEM.DIHEDRAL>
0

>  <SCORE.SYSTEM.norm>
0

>  <SCORE.heavy>
50

>  <SCORE.norm>
1.12662

$$$$
