FB1.pdb
  RxDock  10092018133D
librxdock.so/0.1.0
 59 58  0  0  0  0  0  0  0  0999 V2000
    1.5949    2.1284   11.3512 C   0  0  0  0  0  0
    1.7335    2.9032   10.0429 C   0  0  0  0  0  0
    0.3955    3.5191    9.6014 C   0  0  0  0  0  0
   -0.6672    2.4654    9.2013 C   0  0  0  0  0  0
   -0.6234    2.0195    7.6981 C   0  0  0  0  0  0
   -1.7400    0.9749    7.4688 C   0  0  0  0  0  0
   -0.7560    3.2256    6.6756 C   0  0  0  0  0  0
    0.2241    3.2140    5.4085 C   0  0  0  0  0  0
    0.1302    2.1987    4.1884 C   0  0  0  0  0  0
   -1.2509    1.2983    4.1323 C   0  0  0  0  0  0
   -2.3275    2.1060    3.4093 C   0  0  0  0  0  0
   -1.1235   -0.1437    3.4620 C   0  0  0  0  0  0
   -0.4155   -0.4211    2.0336 C   0  0  0  0  0  0
   -0.1119   -1.8680    1.5134 C   0  0  0  0  0  0
   -1.2796   -2.6675    0.7741 C   0  0  0  0  0  0
   -2.6613   -3.0414    1.4415 C   0  0  0  0  0  0
   -2.6973   -4.0777    2.5958 C   0  0  0  0  0  0
   -3.0367   -5.5661    2.1974 C   0  0  0  0  0  0
   -2.0689   -6.2455    1.2205 C   0  0  0  0  0  0
   -0.5894   -6.4347    1.6602 C   0  0  0  0  0  0
    0.1671   -7.7587    1.3438 C   0  0  0  0  0  0
    0.1597   -8.8205    2.4347 C   0  0  0  0  0  0
   -0.2779   -8.3233    0.0556 N   0  0  0  0  0  0
    0.1410   -5.4051    0.9458 O   0  0  0  0  0  0
   -3.0908   -6.3434    3.3985 O   0  0  0  0  0  0
   -1.3092    0.1473    1.0616 O   0  0  0  0  0  0
    0.1097    4.5262    4.7942 O   0  0  0  0  0  0
    1.2376    5.0535    4.2510 C   0  0  0  0  0  0
    2.1389    4.4324    3.7207 O   0  0  0  0  0  0
    1.1441    6.5527    4.3218 C   0  0  0  0  0  0
   -0.2832    7.0420    4.6149 C   0  0  0  0  0  0
   -0.3962    7.7491    5.9715 C   0  0  0  0  0  0
    0.4365    7.0506    7.0214 C   0  0  0  0  0  0
    0.0136    6.1429    7.7291 O   0  0  0  0  0  0
    1.6908    7.5179    7.1066 O   0  0  0  0  0  0
   -0.6356    8.0173    3.4832 C   0  0  0  0  0  0
   -0.6248    9.2310    3.6213 O   0  0  0  0  0  0
   -1.0058    7.4261    2.3389 O   0  0  0  0  0  0
   -2.1696    3.4401    6.2810 O   0  0  0  0  0  0
   -2.6034    4.7370    6.0624 C   0  0  0  0  0  0
   -2.4314    5.6687    6.8375 O   0  0  0  0  0  0
   -3.3354    4.8898    4.7226 C   0  0  0  0  0  0
   -4.7850    4.3149    4.6733 C   0  0  0  0  0  0
   -5.5142    4.3067    3.3174 C   0  0  0  0  0  0
   -5.2467    5.5376    2.5001 C   0  0  0  0  0  0
   -5.2212    5.5911    1.2782 O   0  0  0  0  0  0
   -5.0478    6.6252    3.2603 O   0  0  0  0  0  0
   -4.9360    2.9132    5.2772 C   0  0  0  0  0  0
   -4.9901    1.9052    4.6007 O   0  0  0  0  0  0
   -4.8979    2.8558    6.6250 O   0  0  0  0  0  0
   -1.2198   -8.6975    0.1624 H   0  0  0  0  0  0
    0.3045   -9.1344   -0.1643 H   0  0  0  0  0  0
    0.1176   -5.6915    0.0084 H   0  0  0  0  0  0
   -2.2101   -6.3199    3.8160 H   0  0  0  0  0  0
   -1.4368    1.0850    1.2825 H   0  0  0  0  0  0
    2.2340    7.1259    7.8170 H   0  0  0  0  0  0
   -1.2393    8.0533    1.6103 H   0  0  0  0  0  0
   -5.4058    6.4165    4.1489 H   0  0  0  0  0  0
   -4.9476    1.9520    7.0081 H   0  0  0  0  0  0
  1  2  1  0  0  0
  2  3  1  0  0  0
  3  4  1  0  0  0
  4  5  1  0  0  0
  5  6  1  0  0  0
  5  7  1  0  0  0
  7  8  1  0  0  0
  7 39  1  0  0  0
  8  9  1  0  0  0
  8 27  1  0  0  0
  9 10  1  0  0  0
 10 11  1  0  0  0
 10 12  1  0  0  0
 12 13  1  0  0  0
 13 14  1  0  0  0
 13 26  1  0  0  0
 14 15  1  0  0  0
 15 16  1  0  0  0
 16 17  1  0  0  0
 17 18  1  0  0  0
 18 19  1  0  0  0
 18 25  1  0  0  0
 19 20  1  0  0  0
 20 21  1  0  0  0
 20 24  1  0  0  0
 21 22  1  0  0  0
 21 23  1  0  0  0
 23 51  1  0  0  0
 23 52  1  0  0  0
 24 53  1  0  0  0
 25 54  1  0  0  0
 26 55  1  0  0  0
 27 28  1  0  0  0
 28 29  2  0  0  0
 28 30  1  0  0  0
 30 31  1  0  0  0
 31 32  1  0  0  0
 31 36  1  0  0  0
 32 33  1  0  0  0
 33 34  2  0  0  0
 33 35  1  0  0  0
 35 56  1  0  0  0
 36 37  2  0  0  0
 36 38  1  0  0  0
 38 57  1  0  0  0
 39 40  1  0  0  0
 40 41  2  0  0  0
 40 42  1  0  0  0
 42 43  1  0  0  0
 43 44  1  0  0  0
 43 48  1  0  0  0
 44 45  1  0  0  0
 45 46  2  0  0  0
 45 47  1  0  0  0
 47 58  1  0  0  0
 48 49  2  0  0  0
 48 50  1  0  0  0
 50 59  1  0  0  0
M  END
>  <AUTHOR>
    GENERATED BY OPEN BABEL 2.4.1

>  <CHROM.1>
-66.93585589,-87.85051716,-179.97314631,136.85158533,70.22493067,144.52343469
11.66582577,144.27991391,85.49359382,-48.75967874,170.23852260,83.84878772
56.80660197,-60.52647371,-67.92623365,-96.23107318,60.84404241,61.93791992
-62.19924946,138.91056196,-94.21901259,-69.93299434,-71.86928578,32.83466434
-15.17217375,114.85665493,-39.47805236,-102.88478155,-89.63107167,176.10365889
179.59245047,-50.20157857,75.09699971,-173.74325109,-38.73372218,-100.46667959
149.11443356,-17.84770524,-176.94191919,-1.38438757,1.84013314,4.37753360
-1.55153664,0.90658281,-2.83264597

>  <COMPND>
    UNNAMED

>  <MASTER>
        0    0    0    0    0    0    0    0  109    0  109    0

>  <Name>
FB1.pdb

>  <RI>
0

>  <Rbt.Current_Directory>
/home/fc/tossine/F10/p3/1_clust04

>  <Rbt.Executable>
rbdock/0.1.0

>  <Rbt.Library>
librxdock.so/0.1.0

>  <Rbt.Parameter_File>
/cluster/rxdock/data/scripts/dock.prm

>  <Rbt.Receptor>
rx_0.prm

>  <SCORE>
28.3422

>  <SCORE.INTER>
4.79273

>  <SCORE.INTER.CONST>
1

>  <SCORE.INTER.POLAR>
-1.54976

>  <SCORE.INTER.REPUL>
0.00474088

>  <SCORE.INTER.ROT>
32

>  <SCORE.INTER.VDW>
-27.3618

>  <SCORE.INTER.norm>
0.0958546

>  <SCORE.INTRA>
23.0202

>  <SCORE.INTRA.DIHEDRAL>
35.3255

>  <SCORE.INTRA.DIHEDRAL.0>
47.3121

>  <SCORE.INTRA.POLAR>
1.47808

>  <SCORE.INTRA.POLAR.0>
-1.47808

>  <SCORE.INTRA.REPUL>
0

>  <SCORE.INTRA.REPUL.0>
0

>  <SCORE.INTRA.VDW>
0.331989

>  <SCORE.INTRA.VDW.0>
-2.78316

>  <SCORE.INTRA.norm>
0.460404

>  <SCORE.RESTR>
0.529323

>  <SCORE.RESTR.CAVITY>
0.529323

>  <SCORE.RESTR.norm>
0.0105865

>  <SCORE.SYSTEM>
0

>  <SCORE.SYSTEM.CONST>
0

>  <SCORE.SYSTEM.DIHEDRAL>
0

>  <SCORE.SYSTEM.norm>
0

>  <SCORE.heavy>
50

>  <SCORE.norm>
0.566845

$$$$
