FB1.pdb
  RxDock  10092020143D
librxdock.so/0.1.0
 59 58  0  0  0  0  0  0  0  0999 V2000
   -0.7832    9.1549    7.8368 C   0  0  0  0  0  0
    0.1425    7.9789    8.1389 C   0  0  0  0  0  0
   -0.6481    6.7010    8.4648 C   0  0  0  0  0  0
   -1.3274    6.0627    7.2276 C   0  0  0  0  0  0
   -2.1349    4.7500    7.5198 C   0  0  0  0  0  0
   -3.5610    5.1466    7.9665 C   0  0  0  0  0  0
   -2.1835    3.7492    6.2894 C   0  0  0  0  0  0
   -2.0823    2.1854    6.6215 C   0  0  0  0  0  0
   -3.2799    1.2830    7.1505 C   0  0  0  0  0  0
   -4.7605    1.6458    6.5200 C   0  0  0  0  0  0
   -4.7366    1.3458    5.0221 C   0  0  0  0  0  0
   -6.0091    0.9150    7.1920 C   0  0  0  0  0  0
   -7.2843    0.3550    6.3681 C   0  0  0  0  0  0
   -7.5245   -1.1753    6.1298 C   0  0  0  0  0  0
   -8.8514   -1.6232    5.3632 C   0  0  0  0  0  0
  -10.2065   -2.0033    6.0801 C   0  0  0  0  0  0
  -10.1853   -2.9743    7.2900 C   0  0  0  0  0  0
   -9.7918   -2.3535    8.6861 C   0  0  0  0  0  0
  -10.5799   -2.8591    9.9009 C   0  0  0  0  0  0
  -10.4493   -4.3584   10.2925 C   0  0  0  0  0  0
  -10.9386   -4.8584   11.6839 C   0  0  0  0  0  0
  -10.5360   -6.2734   12.0753 C   0  0  0  0  0  0
  -10.5812   -3.8963   12.7435 N   0  0  0  0  0  0
  -11.2734   -5.0631    9.3292 O   0  0  0  0  0  0
   -8.4008   -2.6103    8.9074 O   0  0  0  0  0  0
   -8.4303    0.8033    7.1113 O   0  0  0  0  0  0
   -1.6577    1.5356    5.3927 O   0  0  0  0  0  0
   -0.4058    1.8172    4.9468 C   0  0  0  0  0  0
    0.4757    2.3685    5.5780 O   0  0  0  0  0  0
   -0.2514    1.2409    3.5664 C   0  0  0  0  0  0
   -0.4049   -0.2883    3.5446 C   0  0  0  0  0  0
   -1.8673   -0.7350    3.6690 C   0  0  0  0  0  0
   -2.0173   -2.2045    3.3509 C   0  0  0  0  0  0
   -1.5650   -3.1006    4.0552 O   0  0  0  0  0  0
   -2.6976   -2.4395    2.2191 O   0  0  0  0  0  0
    0.1731   -0.7511    2.2001 C   0  0  0  0  0  0
    0.9206   -1.7111    2.0905 O   0  0  0  0  0  0
   -0.1706    0.0164    1.1567 O   0  0  0  0  0  0
   -3.3282    4.0534    5.3966 O   0  0  0  0  0  0
   -3.3930    5.3072    4.8120 C   0  0  0  0  0  0
   -2.4246    6.0205    4.5847 O   0  0  0  0  0  0
   -4.8313    5.7186    4.4708 C   0  0  0  0  0  0
   -5.2019    5.6926    2.9554 C   0  0  0  0  0  0
   -4.5022    6.6976    2.0223 C   0  0  0  0  0  0
   -5.2363    6.9069    0.7293 C   0  0  0  0  0  0
   -4.7228    6.9831   -0.3785 O   0  0  0  0  0  0
   -6.5646    6.9879    0.9007 O   0  0  0  0  0  0
   -5.0944    4.3119    2.2963 C   0  0  0  0  0  0
   -4.4024    3.4188    2.7436 O   0  0  0  0  0  0
   -5.9059    4.1109    1.2368 O   0  0  0  0  0  0
   -9.5726   -3.7504   12.7360 H   0  0  0  0  0  0
  -10.7789   -4.3223   13.6518 H   0  0  0  0  0  0
  -12.1798   -4.7230    9.4844 H   0  0  0  0  0  0
   -8.1643   -2.2658    9.7882 H   0  0  0  0  0  0
   -8.5013    1.7665    7.0024 H   0  0  0  0  0  0
   -3.0457   -1.6455    1.7698 H   0  0  0  0  0  0
    0.2401   -0.2516    0.2975 H   0  0  0  0  0  0
   -6.9508    7.1782    0.0198 H   0  0  0  0  0  0
   -5.8930    3.2011    0.8650 H   0  0  0  0  0  0
  1  2  1  0  0  0
  2  3  1  0  0  0
  3  4  1  0  0  0
  4  5  1  0  0  0
  5  6  1  0  0  0
  5  7  1  0  0  0
  7  8  1  0  0  0
  7 39  1  0  0  0
  8  9  1  0  0  0
  8 27  1  0  0  0
  9 10  1  0  0  0
 10 11  1  0  0  0
 10 12  1  0  0  0
 12 13  1  0  0  0
 13 14  1  0  0  0
 13 26  1  0  0  0
 14 15  1  0  0  0
 15 16  1  0  0  0
 16 17  1  0  0  0
 17 18  1  0  0  0
 18 19  1  0  0  0
 18 25  1  0  0  0
 19 20  1  0  0  0
 20 21  1  0  0  0
 20 24  1  0  0  0
 21 22  1  0  0  0
 21 23  1  0  0  0
 23 51  1  0  0  0
 23 52  1  0  0  0
 24 53  1  0  0  0
 25 54  1  0  0  0
 26 55  1  0  0  0
 27 28  1  0  0  0
 28 29  2  0  0  0
 28 30  1  0  0  0
 30 31  1  0  0  0
 31 32  1  0  0  0
 31 36  1  0  0  0
 32 33  1  0  0  0
 33 34  2  0  0  0
 33 35  1  0  0  0
 35 56  1  0  0  0
 36 37  2  0  0  0
 36 38  1  0  0  0
 38 57  1  0  0  0
 39 40  1  0  0  0
 40 41  2  0  0  0
 40 42  1  0  0  0
 42 43  1  0  0  0
 43 44  1  0  0  0
 43 48  1  0  0  0
 44 45  1  0  0  0
 45 46  2  0  0  0
 45 47  1  0  0  0
 47 58  1  0  0  0
 48 49  2  0  0  0
 48 50  1  0  0  0
 50 59  1  0  0  0
M  END
>  <AUTHOR>
    GENERATED BY OPEN BABEL 2.4.1

>  <CHROM.1>
72.64140184,179.56229753,85.70595507,141.78604021,79.11713896,59.68418750
36.59997243,66.63885444,65.13571139,-141.12957733,106.84415576,177.13360018
70.42903152,-92.40081579,-47.33985333,80.57835334,140.50954666,64.03302330
-177.31123024,165.44360166,-168.93965742,-62.24531759,-57.03635709,13.60219200
-61.70373779,75.87221871,167.87344660,135.23449695,67.94457017,-2.88380031
176.87012344,26.00414070,-106.80548623,-66.25543650,-160.63260273,-22.28811688
-137.62442476,176.59085969,-174.87246608,-4.65828670,1.45050449,5.60765100
0.72535934,0.63330694,0.01255004

>  <COMPND>
    UNNAMED

>  <MASTER>
        0    0    0    0    0    0    0    0  109    0  109    0

>  <Name>
FB1.pdb

>  <RI>
0

>  <Rbt.Current_Directory>
/home/fc/tossine/F10/p3/1_clust04

>  <Rbt.Executable>
rbdock/0.1.0

>  <Rbt.Library>
librxdock.so/0.1.0

>  <Rbt.Parameter_File>
/cluster/rxdock/data/scripts/dock.prm

>  <Rbt.Receptor>
rx_2.prm

>  <SCORE>
10.4221

>  <SCORE.INTER>
2.1391

>  <SCORE.INTER.CONST>
1

>  <SCORE.INTER.POLAR>
-2.17225

>  <SCORE.INTER.REPUL>
0.643293

>  <SCORE.INTER.ROT>
32

>  <SCORE.INTER.VDW>
-31.0917

>  <SCORE.INTER.norm>
0.0427821

>  <SCORE.INTRA>
6.4565

>  <SCORE.INTRA.DIHEDRAL>
6.71185

>  <SCORE.INTRA.DIHEDRAL.0>
47.3121

>  <SCORE.INTRA.POLAR>
1.47808

>  <SCORE.INTRA.POLAR.0>
-1.47808

>  <SCORE.INTRA.REPUL>
0

>  <SCORE.INTRA.REPUL.0>
0

>  <SCORE.INTRA.VDW>
-1.92489

>  <SCORE.INTRA.VDW.0>
-2.78316

>  <SCORE.INTRA.norm>
0.12913

>  <SCORE.RESTR>
1.82655

>  <SCORE.RESTR.CAVITY>
1.82655

>  <SCORE.RESTR.norm>
0.0365309

>  <SCORE.SYSTEM>
0

>  <SCORE.SYSTEM.CONST>
0

>  <SCORE.SYSTEM.DIHEDRAL>
0

>  <SCORE.SYSTEM.norm>
0

>  <SCORE.heavy>
50

>  <SCORE.norm>
0.208443

$$$$
