FB1.pdb
  RxDock  09132018553D
librxdock.so/0.1.0
 59 58  0  0  0  0  0  0  0  0999 V2000
   -6.9694   -1.9080    4.2095 C   0  0  0  0  0  0
   -6.7692   -1.9307    2.6960 C   0  0  0  0  0  0
   -5.5715   -2.8069    2.2932 C   0  0  0  0  0  0
   -4.2099   -2.2552    2.7844 C   0  0  0  0  0  0
   -2.9515   -2.8928    2.0986 C   0  0  0  0  0  0
   -2.8700   -2.3656    0.6474 C   0  0  0  0  0  0
   -1.5976   -2.6179    2.8791 C   0  0  0  0  0  0
   -1.4539   -1.1971    3.6049 C   0  0  0  0  0  0
   -1.3919   -0.9754    5.1782 C   0  0  0  0  0  0
   -1.6672    0.5724    5.6779 C   0  0  0  0  0  0
   -1.2089    0.7023    7.1295 C   0  0  0  0  0  0
   -0.9975    1.7241    4.8004 C   0  0  0  0  0  0
   -0.3051    3.0496    5.4186 C   0  0  0  0  0  0
    1.0555    3.0025    6.1950 C   0  0  0  0  0  0
    1.3873    4.1859    7.2141 C   0  0  0  0  0  0
    0.8178    5.6536    7.0875 C   0  0  0  0  0  0
    1.0825    6.4674    5.7933 C   0  0  0  0  0  0
    1.3173    8.0175    5.9703 C   0  0  0  0  0  0
    1.5489    8.8207    4.6843 C   0  0  0  0  0  0
    2.5003   10.0494    4.7436 C   0  0  0  0  0  0
    3.7256   10.0558    5.7048 C   0  0  0  0  0  0
    4.7143   11.2007    5.5346 C   0  0  0  0  0  0
    3.2919    9.9381    7.1100 N   0  0  0  0  0  0
    3.0674   10.1398    3.4117 O   0  0  0  0  0  0
    0.1798    8.5620    6.6479 O   0  0  0  0  0  0
   -0.0617    3.9016    4.2866 O   0  0  0  0  0  0
   -0.2194   -0.6110    3.1101 O   0  0  0  0  0  0
   -0.3310    0.4985    2.3342 C   0  0  0  0  0  0
   -1.3473    0.9078    1.8060 O   0  0  0  0  0  0
    0.9979    1.2022    2.3162 C   0  0  0  0  0  0
    2.0851    0.3923    1.5920 C   0  0  0  0  0  0
    1.6271   -0.1098    0.2166 C   0  0  0  0  0  0
    1.8256    0.9484   -0.8437 C   0  0  0  0  0  0
    2.5077    0.7816   -1.8491 O   0  0  0  0  0  0
    1.1803    2.0947   -0.5821 O   0  0  0  0  0  0
    3.2819    1.3401    1.4334 C   0  0  0  0  0  0
    4.4428    0.9637    1.4895 O   0  0  0  0  0  0
    2.9497    2.6289    1.2766 O   0  0  0  0  0  0
   -1.2667   -3.7413    3.7893 O   0  0  0  0  0  0
   -1.0355   -4.9904    3.2376 C   0  0  0  0  0  0
   -0.7885   -5.1950    2.0563 O   0  0  0  0  0  0
   -1.1218   -6.1138    4.2792 C   0  0  0  0  0  0
   -1.2415   -7.5604    3.7070 C   0  0  0  0  0  0
   -0.1517   -8.0456    2.7336 C   0  0  0  0  0  0
   -0.6078   -9.1785    1.8600 C   0  0  0  0  0  0
   -0.5481  -10.3670    2.1437 O   0  0  0  0  0  0
   -1.1263   -8.7536    0.6977 O   0  0  0  0  0  0
   -1.4200   -8.6532    4.7682 C   0  0  0  0  0  0
   -0.6216   -9.5552    4.9279 O   0  0  0  0  0  0
   -2.4747   -8.4916    5.5945 O   0  0  0  0  0  0
    2.3088   10.1975    7.1790 H   0  0  0  0  0  0
    3.7888   10.6386    7.6649 H   0  0  0  0  0  0
    3.4521    9.2532    3.2467 H   0  0  0  0  0  0
    0.3464    9.5089    6.8095 H   0  0  0  0  0  0
   -0.9189    4.2307    3.9681 H   0  0  0  0  0  0
    0.4668    2.0290    0.0813 H   0  0  0  0  0  0
    2.0731    2.7766    0.8425 H   0  0  0  0  0  0
   -1.4310   -9.5520    0.2171 H   0  0  0  0  0  0
   -2.5775   -9.1843    6.2843 H   0  0  0  0  0  0
  1  2  1  0  0  0
  2  3  1  0  0  0
  3  4  1  0  0  0
  4  5  1  0  0  0
  5  6  1  0  0  0
  5  7  1  0  0  0
  7  8  1  0  0  0
  7 39  1  0  0  0
  8  9  1  0  0  0
  8 27  1  0  0  0
  9 10  1  0  0  0
 10 11  1  0  0  0
 10 12  1  0  0  0
 12 13  1  0  0  0
 13 14  1  0  0  0
 13 26  1  0  0  0
 14 15  1  0  0  0
 15 16  1  0  0  0
 16 17  1  0  0  0
 17 18  1  0  0  0
 18 19  1  0  0  0
 18 25  1  0  0  0
 19 20  1  0  0  0
 20 21  1  0  0  0
 20 24  1  0  0  0
 21 22  1  0  0  0
 21 23  1  0  0  0
 23 51  1  0  0  0
 23 52  1  0  0  0
 24 53  1  0  0  0
 25 54  1  0  0  0
 26 55  1  0  0  0
 27 28  1  0  0  0
 28 29  2  0  0  0
 28 30  1  0  0  0
 30 31  1  0  0  0
 31 32  1  0  0  0
 31 36  1  0  0  0
 32 33  1  0  0  0
 33 34  2  0  0  0
 33 35  1  0  0  0
 35 56  1  0  0  0
 36 37  2  0  0  0
 36 38  1  0  0  0
 38 57  1  0  0  0
 39 40  1  0  0  0
 40 41  2  0  0  0
 40 42  1  0  0  0
 42 43  1  0  0  0
 43 44  1  0  0  0
 43 48  1  0  0  0
 44 45  1  0  0  0
 45 46  2  0  0  0
 45 47  1  0  0  0
 47 58  1  0  0  0
 48 49  2  0  0  0
 48 50  1  0  0  0
 50 59  1  0  0  0
M  END
>  <AUTHOR>
    GENERATED BY OPEN BABEL 2.4.1

>  <CHROM.1>
-65.59571346,-164.91886429,72.26049799,-35.25824987,112.87509712,62.27768649
-163.58814894,112.78441788,-164.87913888,-139.57032729,70.74736469,-157.30715774
70.62964061,-27.14255671,-57.60265594,-144.03984303,-178.74632446,-146.93759832
176.44600666,32.79054348,170.71774853,-54.42558735,-19.34151416,-14.74304685
67.09249866,49.51484438,84.40943171,145.36803632,122.19108783,-17.81876670
-29.08230381,17.11036033,164.90022770,56.21764774,-157.85236086,-118.45238832
-87.41470011,-177.46448312,-178.91812597,-0.11873993,0.18285361,3.50549438
1.94156864,-0.76476200,-2.73637068

>  <COMPND>
    UNNAMED

>  <MASTER>
        0    0    0    0    0    0    0    0  109    0  109    0

>  <Name>
FB1.pdb

>  <RI>
0

>  <Rbt.Current_Directory>
/home/fc/tossine/F10/p3/1_clust04

>  <Rbt.Executable>
rbdock/0.1.0

>  <Rbt.Library>
librxdock.so/0.1.0

>  <Rbt.Parameter_File>
/cluster/rxdock/data/scripts/dock.prm

>  <Rbt.Receptor>
rx_1.prm

>  <SCORE>
15.228

>  <SCORE.INTER>
-6.40809

>  <SCORE.INTER.CONST>
1

>  <SCORE.INTER.POLAR>
-4.27484

>  <SCORE.INTER.REPUL>
0.855819

>  <SCORE.INTER.ROT>
32

>  <SCORE.INTER.VDW>
-33.5527

>  <SCORE.INTER.norm>
-0.128162

>  <SCORE.INTRA>
18.3029

>  <SCORE.INTRA.DIHEDRAL>
18.6965

>  <SCORE.INTRA.DIHEDRAL.0>
47.3121

>  <SCORE.INTRA.POLAR>
1.15373

>  <SCORE.INTRA.POLAR.0>
-1.47808

>  <SCORE.INTRA.REPUL>
0.00526298

>  <SCORE.INTRA.REPUL.0>
0

>  <SCORE.INTRA.VDW>
5.00559

>  <SCORE.INTRA.VDW.0>
-2.78316

>  <SCORE.INTRA.norm>
0.366057

>  <SCORE.RESTR>
3.33323

>  <SCORE.RESTR.CAVITY>
3.33323

>  <SCORE.RESTR.norm>
0.0666647

>  <SCORE.SYSTEM>
0

>  <SCORE.SYSTEM.CONST>
0

>  <SCORE.SYSTEM.DIHEDRAL>
0

>  <SCORE.SYSTEM.norm>
0

>  <SCORE.heavy>
50

>  <SCORE.norm>
0.30456

$$$$
