FB1.pdb
  RxDock  10092021013D
librxdock.so/0.1.0
 59 58  0  0  0  0  0  0  0  0999 V2000
  -10.1040   -7.0002    1.0000 C   0  0  0  0  0  0
   -9.9524   -6.2436   -0.3175 C   0  0  0  0  0  0
  -10.1469   -4.7299   -0.1305 C   0  0  0  0  0  0
   -9.1382   -4.0953    0.8592 C   0  0  0  0  0  0
   -9.6281   -2.7729    1.5460 C   0  0  0  0  0  0
  -10.4650   -3.1527    2.7894 C   0  0  0  0  0  0
   -8.4474   -1.7871    1.9362 C   0  0  0  0  0  0
   -8.8589   -0.3916    2.6067 C   0  0  0  0  0  0
   -8.1917    0.2296    3.9095 C   0  0  0  0  0  0
   -9.0152   -0.0398    5.3133 C   0  0  0  0  0  0
   -8.9401   -1.5301    5.6414 C   0  0  0  0  0  0
   -8.5453    0.8107    6.5784 C   0  0  0  0  0  0
   -7.1368    0.5943    7.3452 C   0  0  0  0  0  0
   -7.0257   -0.2051    8.6886 C   0  0  0  0  0  0
   -8.0736   -1.3787    8.9604 C   0  0  0  0  0  0
   -7.7675   -2.6587    9.8335 C   0  0  0  0  0  0
   -6.9343   -2.5155   11.1346 C   0  0  0  0  0  0
   -7.6842   -2.8176   12.4894 C   0  0  0  0  0  0
   -6.8002   -2.9975   13.7298 C   0  0  0  0  0  0
   -5.6245   -4.0128   13.6563 C   0  0  0  0  0  0
   -4.3350   -3.6736   12.8516 C   0  0  0  0  0  0
   -3.6062   -2.3968   13.2466 C   0  0  0  0  0  0
   -3.4109   -4.8233   12.8307 N   0  0  0  0  0  0
   -5.1818   -4.1625   15.0294 O   0  0  0  0  0  0
   -8.6005   -1.7455   12.7357 O   0  0  0  0  0  0
   -6.3144   -0.1254    6.4112 O   0  0  0  0  0  0
   -8.6649    0.6232    1.5844 O   0  0  0  0  0  0
   -9.0632    1.8864    1.8858 C   0  0  0  0  0  0
  -10.0663    2.1974    2.4993 O   0  0  0  0  0  0
   -8.0007    2.8440    1.4215 C   0  0  0  0  0  0
   -8.4284    3.6442    0.1809 C   0  0  0  0  0  0
   -7.8033    5.0446    0.1393 C   0  0  0  0  0  0
   -8.2584    5.8797    1.3135 C   0  0  0  0  0  0
   -9.2207    5.5929    2.0175 O   0  0  0  0  0  0
   -7.5055    6.9709    1.5168 O   0  0  0  0  0  0
   -7.9628    2.8250   -1.0307 C   0  0  0  0  0  0
   -7.6378    1.6497   -0.9560 O   0  0  0  0  0  0
   -7.8940    3.5197   -2.1746 O   0  0  0  0  0  0
   -7.3994   -2.4892    2.7163 O   0  0  0  0  0  0
   -6.3921   -3.1437    2.0271 C   0  0  0  0  0  0
   -6.3213   -3.2241    0.8077 O   0  0  0  0  0  0
   -5.3532   -3.7697    2.9668 C   0  0  0  0  0  0
   -4.2876   -4.6838    2.2858 C   0  0  0  0  0  0
   -3.2924   -4.0308    1.3093 C   0  0  0  0  0  0
   -2.8052   -2.6900    1.7776 C   0  0  0  0  0  0
   -2.6626   -1.6978    1.0762 O   0  0  0  0  0  0
   -2.5463   -2.6691    3.0940 O   0  0  0  0  0  0
   -3.4704   -5.5437    3.2579 C   0  0  0  0  0  0
   -2.5642   -5.0968    3.9331 O   0  0  0  0  0  0
   -3.8917   -6.8180    3.3990 O   0  0  0  0  0  0
   -3.5659   -5.3610   11.9790 H   0  0  0  0  0  0
   -3.6618   -5.4580   13.5921 H   0  0  0  0  0  0
   -5.9668   -4.5065   15.5056 H   0  0  0  0  0  0
   -8.0851   -0.9273   12.8602 H   0  0  0  0  0  0
   -6.2019    0.4284    5.6206 H   0  0  0  0  0  0
   -7.8474    7.5942    2.1862 H   0  0  0  0  0  0
   -8.2834    4.4279   -2.1269 H   0  0  0  0  0  0
   -2.1605   -1.7895    3.2909 H   0  0  0  0  0  0
   -4.6385   -7.0800    2.8161 H   0  0  0  0  0  0
  1  2  1  0  0  0
  2  3  1  0  0  0
  3  4  1  0  0  0
  4  5  1  0  0  0
  5  6  1  0  0  0
  5  7  1  0  0  0
  7  8  1  0  0  0
  7 39  1  0  0  0
  8  9  1  0  0  0
  8 27  1  0  0  0
  9 10  1  0  0  0
 10 11  1  0  0  0
 10 12  1  0  0  0
 12 13  1  0  0  0
 13 14  1  0  0  0
 13 26  1  0  0  0
 14 15  1  0  0  0
 15 16  1  0  0  0
 16 17  1  0  0  0
 17 18  1  0  0  0
 18 19  1  0  0  0
 18 25  1  0  0  0
 19 20  1  0  0  0
 20 21  1  0  0  0
 20 24  1  0  0  0
 21 22  1  0  0  0
 21 23  1  0  0  0
 23 51  1  0  0  0
 23 52  1  0  0  0
 24 53  1  0  0  0
 25 54  1  0  0  0
 26 55  1  0  0  0
 27 28  1  0  0  0
 28 29  2  0  0  0
 28 30  1  0  0  0
 30 31  1  0  0  0
 31 32  1  0  0  0
 31 36  1  0  0  0
 32 33  1  0  0  0
 33 34  2  0  0  0
 33 35  1  0  0  0
 35 56  1  0  0  0
 36 37  2  0  0  0
 36 38  1  0  0  0
 38 57  1  0  0  0
 39 40  1  0  0  0
 40 41  2  0  0  0
 40 42  1  0  0  0
 42 43  1  0  0  0
 43 44  1  0  0  0
 43 48  1  0  0  0
 44 45  1  0  0  0
 45 46  2  0  0  0
 45 47  1  0  0  0
 47 58  1  0  0  0
 48 49  2  0  0  0
 48 50  1  0  0  0
 50 59  1  0  0  0
M  END
>  <AUTHOR>
    GENERATED BY OPEN BABEL 2.4.1

>  <CHROM.1>
59.58388352,-155.15914064,85.21830306,178.34638442,132.82958385,86.73886107
-97.60964838,174.38763170,68.18660608,-69.79981141,-100.55854385,29.54173762
61.35601220,150.60689385,39.53832929,114.06741373,166.18807155,-52.10004144
-63.83064497,74.15281665,56.64762045,60.36928036,94.82608444,-39.42793380
107.61798696,148.90866932,-62.77183644,16.02139848,-15.61362974,171.75675493
-9.08859816,-2.40956153,172.28545267,65.66327929,40.14350461,-76.78230344
-137.93136401,174.96873000,4.18547884,-7.00046517,-1.33125787,4.58508755
-2.15677185,-1.23095676,1.39235812

>  <COMPND>
    UNNAMED

>  <MASTER>
        0    0    0    0    0    0    0    0  109    0  109    0

>  <Name>
FB1.pdb

>  <RI>
0

>  <Rbt.Current_Directory>
/home/fc/tossine/F10/p3/1_clust04

>  <Rbt.Executable>
rbdock/0.1.0

>  <Rbt.Library>
librxdock.so/0.1.0

>  <Rbt.Parameter_File>
/cluster/rxdock/data/scripts/dock.prm

>  <Rbt.Receptor>
rx_3.prm

>  <SCORE>
34.2082

>  <SCORE.INTER>
13.672

>  <SCORE.INTER.CONST>
1

>  <SCORE.INTER.POLAR>
-2.34472

>  <SCORE.INTER.REPUL>
1.19301

>  <SCORE.INTER.ROT>
32

>  <SCORE.INTER.VDW>
-21.721

>  <SCORE.INTER.norm>
0.273441

>  <SCORE.INTRA>
17.5884

>  <SCORE.INTRA.DIHEDRAL>
19.9313

>  <SCORE.INTRA.DIHEDRAL.0>
47.3121

>  <SCORE.INTRA.POLAR>
1.47381

>  <SCORE.INTRA.POLAR.0>
-1.47808

>  <SCORE.INTRA.REPUL>
0

>  <SCORE.INTRA.REPUL.0>
0

>  <SCORE.INTRA.VDW>
2.6118

>  <SCORE.INTRA.VDW.0>
-2.78316

>  <SCORE.INTRA.norm>
0.351768

>  <SCORE.RESTR>
2.94772

>  <SCORE.RESTR.CAVITY>
2.94772

>  <SCORE.RESTR.norm>
0.0589543

>  <SCORE.SYSTEM>
0

>  <SCORE.SYSTEM.CONST>
0

>  <SCORE.SYSTEM.DIHEDRAL>
0

>  <SCORE.SYSTEM.norm>
0

>  <SCORE.heavy>
50

>  <SCORE.norm>
0.684164

$$$$
