FB1.pdb
  RxDock  10092021593D
librxdock.so/0.1.0
 59 58  0  0  0  0  0  0  0  0999 V2000
   -2.0426   -9.2855    5.3557 C   0  0  0  0  0  0
   -2.4186   -7.9836    4.6523 C   0  0  0  0  0  0
   -3.8805   -7.5916    4.9234 C   0  0  0  0  0  0
   -4.3334   -6.3258    4.1538 C   0  0  0  0  0  0
   -4.3792   -6.4812    2.5936 C   0  0  0  0  0  0
   -5.8599   -6.5734    2.1580 C   0  0  0  0  0  0
   -3.6313   -5.3157    1.8189 C   0  0  0  0  0  0
   -4.0241   -3.8136    2.2134 C   0  0  0  0  0  0
   -3.5061   -2.5070    1.4697 C   0  0  0  0  0  0
   -2.2286   -1.7521    2.1903 C   0  0  0  0  0  0
   -2.5486   -1.5653    3.6725 C   0  0  0  0  0  0
   -0.8108   -2.4666    2.0350 C   0  0  0  0  0  0
    0.5423   -1.9676    2.7689 C   0  0  0  0  0  0
    0.8707   -0.4504    2.9842 C   0  0  0  0  0  0
    0.8693    0.1207    4.4752 C   0  0  0  0  0  0
    0.8255    1.6572    4.8383 C   0  0  0  0  0  0
   -0.3143    2.5445    4.2718 C   0  0  0  0  0  0
   -1.7290    1.8631    4.1183 C   0  0  0  0  0  0
   -2.9399    2.8045    4.1162 C   0  0  0  0  0  0
   -4.3414    2.2024    3.8136 C   0  0  0  0  0  0
   -5.3521    1.9314    4.9671 C   0  0  0  0  0  0
   -6.5422    1.0438    4.6305 C   0  0  0  0  0  0
   -4.6553    1.4444    6.1728 N   0  0  0  0  0  0
   -4.9902    3.1874    2.9695 O   0  0  0  0  0  0
   -1.7300    1.1181    2.8957 O   0  0  0  0  0  0
    0.4738   -2.5279    4.0910 O   0  0  0  0  0  0
   -5.4720   -3.7331    2.1156 O   0  0  0  0  0  0
   -6.0729   -2.6735    2.7168 C   0  0  0  0  0  0
   -5.6221   -2.0174    3.6364 O   0  0  0  0  0  0
   -7.3542   -2.3763    1.9878 C   0  0  0  0  0  0
   -8.3812   -1.6503    2.8712 C   0  0  0  0  0  0
   -8.9051   -0.3606    2.2264 C   0  0  0  0  0  0
   -9.5494   -0.6426    0.8890 C   0  0  0  0  0  0
  -10.6041   -0.1348    0.5238 O   0  0  0  0  0  0
   -8.8545   -1.5048    0.1323 O   0  0  0  0  0  0
   -9.5355   -2.6408    3.0774 C   0  0  0  0  0  0
   -9.6263   -3.3646    4.0574 O   0  0  0  0  0  0
  -10.4147   -2.6837    2.0668 O   0  0  0  0  0  0
   -2.1629   -5.5246    1.8254 O   0  0  0  0  0  0
   -1.4714   -5.3805    0.6342 C   0  0  0  0  0  0
   -1.5985   -4.4367   -0.1350 O   0  0  0  0  0  0
   -0.5102   -6.5474    0.3722 C   0  0  0  0  0  0
   -1.1813   -7.9266    0.0858 C   0  0  0  0  0  0
   -1.4350   -8.8688    1.2768 C   0  0  0  0  0  0
   -0.6056  -10.1193    1.2224 C   0  0  0  0  0  0
   -0.3966  -10.7940    0.2236 O   0  0  0  0  0  0
   -0.0751  -10.4354    2.4136 O   0  0  0  0  0  0
   -2.4873   -7.8463   -0.7143 C   0  0  0  0  0  0
   -2.6068   -8.3094   -1.8314 O   0  0  0  0  0  0
   -3.5396   -7.3184   -0.0544 O   0  0  0  0  0  0
   -3.8886    2.0781    6.3944 H   0  0  0  0  0  0
   -4.2051    0.5532    5.9523 H   0  0  0  0  0  0
   -4.9826    4.0112    3.5011 H   0  0  0  0  0  0
   -1.6291    1.7460    2.1568 H   0  0  0  0  0  0
    0.6204   -3.4860    4.0195 H   0  0  0  0  0  0
   -9.2239   -1.6707   -0.7562 H   0  0  0  0  0  0
  -11.1642   -3.3151    2.2019 H   0  0  0  0  0  0
    0.4809  -11.2304    2.2719 H   0  0  0  0  0  0
   -3.8591   -6.4542   -0.3969 H   0  0  0  0  0  0
  1  2  1  0  0  0
  2  3  1  0  0  0
  3  4  1  0  0  0
  4  5  1  0  0  0
  5  6  1  0  0  0
  5  7  1  0  0  0
  7  8  1  0  0  0
  7 39  1  0  0  0
  8  9  1  0  0  0
  8 27  1  0  0  0
  9 10  1  0  0  0
 10 11  1  0  0  0
 10 12  1  0  0  0
 12 13  1  0  0  0
 13 14  1  0  0  0
 13 26  1  0  0  0
 14 15  1  0  0  0
 15 16  1  0  0  0
 16 17  1  0  0  0
 17 18  1  0  0  0
 18 19  1  0  0  0
 18 25  1  0  0  0
 19 20  1  0  0  0
 20 21  1  0  0  0
 20 24  1  0  0  0
 21 22  1  0  0  0
 21 23  1  0  0  0
 23 51  1  0  0  0
 23 52  1  0  0  0
 24 53  1  0  0  0
 25 54  1  0  0  0
 26 55  1  0  0  0
 27 28  1  0  0  0
 28 29  2  0  0  0
 28 30  1  0  0  0
 30 31  1  0  0  0
 31 32  1  0  0  0
 31 36  1  0  0  0
 32 33  1  0  0  0
 33 34  2  0  0  0
 33 35  1  0  0  0
 35 56  1  0  0  0
 36 37  2  0  0  0
 36 38  1  0  0  0
 38 57  1  0  0  0
 39 40  1  0  0  0
 40 41  2  0  0  0
 40 42  1  0  0  0
 42 43  1  0  0  0
 43 44  1  0  0  0
 43 48  1  0  0  0
 44 45  1  0  0  0
 45 46  2  0  0  0
 45 47  1  0  0  0
 47 58  1  0  0  0
 48 49  2  0  0  0
 48 50  1  0  0  0
 50 59  1  0  0  0
M  END
>  <AUTHOR>
    GENERATED BY OPEN BABEL 2.4.1

>  <CHROM.1>
-176.20009282,65.78343274,106.10442292,-51.26933611,-173.70825262,133.04878345
-97.98042767,163.90421709,-49.63800687,-174.40470936,-36.54643746,112.03399550
71.54963159,-164.31657642,54.96086345,34.93284067,156.14213023,173.46756935
-64.19261821,102.46247272,-165.64053990,-57.60267081,51.28291731,-23.50810128
155.48520833,127.02745505,58.47451674,95.75955298,136.91550623,-177.00683926
-179.42334033,47.91014057,67.85454991,-91.88992517,-113.31671176,114.93904275
-42.64849617,-177.16796942,113.16378606,-3.76518053,-3.28017478,2.51310870
-1.15588023,-0.12338049,0.26246846

>  <COMPND>
    UNNAMED

>  <MASTER>
        0    0    0    0    0    0    0    0  109    0  109    0

>  <Name>
FB1.pdb

>  <RI>
0

>  <Rbt.Current_Directory>
/home/fc/tossine/F10/p3/1_clust04

>  <Rbt.Executable>
rbdock/0.1.0

>  <Rbt.Library>
librxdock.so/0.1.0

>  <Rbt.Parameter_File>
/cluster/rxdock/data/scripts/dock.prm

>  <Rbt.Receptor>
rx_4.prm

>  <SCORE>
30.7671

>  <SCORE.INTER>
1.30637

>  <SCORE.INTER.CONST>
1

>  <SCORE.INTER.POLAR>
-2.13573

>  <SCORE.INTER.REPUL>
1.18404

>  <SCORE.INTER.ROT>
32

>  <SCORE.INTER.VDW>
-34.7523

>  <SCORE.INTER.norm>
0.0261275

>  <SCORE.INTRA>
28.6815

>  <SCORE.INTRA.DIHEDRAL>
50.3427

>  <SCORE.INTRA.DIHEDRAL.0>
47.3121

>  <SCORE.INTRA.POLAR>
1.47808

>  <SCORE.INTRA.POLAR.0>
-1.47808

>  <SCORE.INTRA.REPUL>
0

>  <SCORE.INTRA.REPUL.0>
0

>  <SCORE.INTRA.VDW>
-1.51536

>  <SCORE.INTRA.VDW.0>
-2.78316

>  <SCORE.INTRA.norm>
0.573629

>  <SCORE.RESTR>
0.779267

>  <SCORE.RESTR.CAVITY>
0.779267

>  <SCORE.RESTR.norm>
0.0155853

>  <SCORE.SYSTEM>
0

>  <SCORE.SYSTEM.CONST>
0

>  <SCORE.SYSTEM.DIHEDRAL>
0

>  <SCORE.SYSTEM.norm>
0

>  <SCORE.heavy>
50

>  <SCORE.norm>
0.615342

$$$$
