FB1.pdb
  RxDock  10092021063D
librxdock.so/0.1.0
 59 58  0  0  0  0  0  0  0  0999 V2000
   -9.7161    0.3193   -1.0824 C   0  0  0  0  0  0
   -9.0476    1.6030   -0.5960 C   0  0  0  0  0  0
   -9.0213    1.6849    0.9392 C   0  0  0  0  0  0
   -8.3735    2.9851    1.4773 C   0  0  0  0  0  0
   -6.8881    3.2183    1.0303 C   0  0  0  0  0  0
   -6.8976    4.0681   -0.2614 C   0  0  0  0  0  0
   -5.9892    3.8957    2.1487 C   0  0  0  0  0  0
   -4.7857    3.0201    2.7412 C   0  0  0  0  0  0
   -3.6209    3.5756    3.6702 C   0  0  0  0  0  0
   -2.4099    2.5024    3.9909 C   0  0  0  0  0  0
   -1.4810    3.1173    5.0364 C   0  0  0  0  0  0
   -2.8656    1.0501    4.4683 C   0  0  0  0  0  0
   -1.9518   -0.2785    4.3317 C   0  0  0  0  0  0
   -0.6950   -0.3413    3.3976 C   0  0  0  0  0  0
    0.0178   -1.7535    3.1811 C   0  0  0  0  0  0
    0.4987   -2.6953    4.3542 C   0  0  0  0  0  0
   -0.5235   -3.6321    5.0506 C   0  0  0  0  0  0
   -1.1277   -4.7947    4.1717 C   0  0  0  0  0  0
   -1.9142   -5.8760    4.9232 C   0  0  0  0  0  0
   -2.2818   -7.1823    4.1638 C   0  0  0  0  0  0
   -1.1658   -8.1361    3.6437 C   0  0  0  0  0  0
   -1.6305   -9.3818    2.9024 C   0  0  0  0  0  0
   -0.1666   -7.3934    2.8523 N   0  0  0  0  0  0
   -3.0295   -7.9690    5.1261 O   0  0  0  0  0  0
   -1.9882   -4.2055    3.1908 O   0  0  0  0  0  0
   -1.4471   -0.5177    5.6563 O   0  0  0  0  0  0
   -5.4005    1.9639    3.5279 O   0  0  0  0  0  0
   -5.7232    2.2605    4.8137 C   0  0  0  0  0  0
   -5.6472    3.3542    5.3405 O   0  0  0  0  0  0
   -6.2910    1.0265    5.4587 C   0  0  0  0  0  0
   -7.1210    0.1784    4.4818 C   0  0  0  0  0  0
   -6.4890   -1.1926    4.2089 C   0  0  0  0  0  0
   -7.3665   -2.0272    3.3053 C   0  0  0  0  0  0
   -7.5802   -3.2217    3.4818 O   0  0  0  0  0  0
   -7.8953   -1.3347    2.2856 O   0  0  0  0  0  0
   -8.4961    0.0011    5.1403 C   0  0  0  0  0  0
   -8.7883   -0.9683    5.8238 O   0  0  0  0  0  0
   -9.3719    0.9769    4.8631 O   0  0  0  0  0  0
   -5.5386    5.2450    1.7289 O   0  0  0  0  0  0
   -5.4544    6.2399    2.6887 C   0  0  0  0  0  0
   -5.1037    6.0615    3.8478 O   0  0  0  0  0  0
   -5.8531    7.6161    2.1395 C   0  0  0  0  0  0
   -4.6815    8.4979    1.6063 C   0  0  0  0  0  0
   -4.0315    8.1044    0.2672 C   0  0  0  0  0  0
   -2.6100    7.6448    0.4178 C   0  0  0  0  0  0
   -2.0953    7.2450    1.4530 O   0  0  0  0  0  0
   -1.9291    7.6957   -0.7373 O   0  0  0  0  0  0
   -4.9937    9.9978    1.5347 C   0  0  0  0  0  0
   -4.4000   10.8280    2.1943 O   0  0  0  0  0  0
   -5.9053   10.3562    0.6064 O   0  0  0  0  0  0
    0.4995   -6.9520    3.4847 H   0  0  0  0  0  0
   -0.6354   -6.6172    2.3798 H   0  0  0  0  0  0
   -2.4573   -7.9943    5.9219 H   0  0  0  0  0  0
   -2.6916   -3.7173    3.6572 H   0  0  0  0  0  0
   -0.9918    0.2875    5.9546 H   0  0  0  0  0  0
   -7.4818   -0.4672    2.1124 H   0  0  0  0  0  0
   -9.0192    1.6893    4.2743 H   0  0  0  0  0  0
   -1.4539    8.5532   -0.7461 H   0  0  0  0  0  0
   -6.1032   11.3180    0.5619 H   0  0  0  0  0  0
  1  2  1  0  0  0
  2  3  1  0  0  0
  3  4  1  0  0  0
  4  5  1  0  0  0
  5  6  1  0  0  0
  5  7  1  0  0  0
  7  8  1  0  0  0
  7 39  1  0  0  0
  8  9  1  0  0  0
  8 27  1  0  0  0
  9 10  1  0  0  0
 10 11  1  0  0  0
 10 12  1  0  0  0
 12 13  1  0  0  0
 13 14  1  0  0  0
 13 26  1  0  0  0
 14 15  1  0  0  0
 15 16  1  0  0  0
 16 17  1  0  0  0
 17 18  1  0  0  0
 18 19  1  0  0  0
 18 25  1  0  0  0
 19 20  1  0  0  0
 20 21  1  0  0  0
 20 24  1  0  0  0
 21 22  1  0  0  0
 21 23  1  0  0  0
 23 51  1  0  0  0
 23 52  1  0  0  0
 24 53  1  0  0  0
 25 54  1  0  0  0
 26 55  1  0  0  0
 27 28  1  0  0  0
 28 29  2  0  0  0
 28 30  1  0  0  0
 30 31  1  0  0  0
 31 32  1  0  0  0
 31 36  1  0  0  0
 32 33  1  0  0  0
 33 34  2  0  0  0
 33 35  1  0  0  0
 35 56  1  0  0  0
 36 37  2  0  0  0
 36 38  1  0  0  0
 38 57  1  0  0  0
 39 40  1  0  0  0
 40 41  2  0  0  0
 40 42  1  0  0  0
 42 43  1  0  0  0
 43 44  1  0  0  0
 43 48  1  0  0  0
 44 45  1  0  0  0
 45 46  2  0  0  0
 45 47  1  0  0  0
 47 58  1  0  0  0
 48 49  2  0  0  0
 48 50  1  0  0  0
 50 59  1  0  0  0
M  END
>  <AUTHOR>
    GENERATED BY OPEN BABEL 2.4.1

>  <CHROM.1>
-178.96859487,-58.97608826,92.40685141,114.88270690,168.82162647,143.31632637
-172.92737317,-84.99524629,-172.37643203,157.19528519,-16.05949793,-171.71733753
-55.46045881,-52.65259821,82.14783666,66.42402913,168.31192798,-167.80638784
-59.73861899,63.33818297,-179.47805376,-52.00403354,82.12660664,6.34249083
-35.23299042,114.53808531,176.93791563,-94.36841544,-137.58052065,15.21479442
-0.34330190,36.12176739,-93.41375829,73.07263710,-113.19413342,116.57156985
19.98034987,95.22031653,-179.95398154,-4.54382668,1.25315556,3.01879411,1.78351156
-0.09374989,-0.17862711

>  <COMPND>
    UNNAMED

>  <MASTER>
        0    0    0    0    0    0    0    0  109    0  109    0

>  <Name>
FB1.pdb

>  <RI>
0

>  <Rbt.Current_Directory>
/home/fc/tossine/F10/p3/1_clust04

>  <Rbt.Executable>
rbdock/0.1.0

>  <Rbt.Library>
librxdock.so/0.1.0

>  <Rbt.Parameter_File>
/cluster/rxdock/data/scripts/dock.prm

>  <Rbt.Receptor>
rx_3.prm

>  <SCORE>
30.4331

>  <SCORE.INTER>
-0.00161392

>  <SCORE.INTER.CONST>
1

>  <SCORE.INTER.POLAR>
-3.4801

>  <SCORE.INTER.REPUL>
0.0167678

>  <SCORE.INTER.ROT>
32

>  <SCORE.INTER.VDW>
-25.6531

>  <SCORE.INTER.norm>
-3.22784e-05

>  <SCORE.INTRA>
22.9346

>  <SCORE.INTRA.DIHEDRAL>
35.3669

>  <SCORE.INTRA.DIHEDRAL.0>
47.3121

>  <SCORE.INTRA.POLAR>
1.47808

>  <SCORE.INTRA.POLAR.0>
-1.47808

>  <SCORE.INTRA.REPUL>
0.0107317

>  <SCORE.INTRA.REPUL.0>
0

>  <SCORE.INTRA.VDW>
0.17205

>  <SCORE.INTRA.VDW.0>
-2.78316

>  <SCORE.INTRA.norm>
0.458692

>  <SCORE.RESTR>
7.50013

>  <SCORE.RESTR.CAVITY>
7.50013

>  <SCORE.RESTR.norm>
0.150003

>  <SCORE.SYSTEM>
0

>  <SCORE.SYSTEM.CONST>
0

>  <SCORE.SYSTEM.DIHEDRAL>
0

>  <SCORE.SYSTEM.norm>
0

>  <SCORE.heavy>
50

>  <SCORE.norm>
0.608663

$$$$
