FB1.pdb
  RxDock  10092021593D
librxdock.so/0.1.0
 59 58  0  0  0  0  0  0  0  0999 V2000
   -0.4132   -8.8687    0.9051 C   0  0  0  0  0  0
   -1.8152   -8.7869    0.3059 C   0  0  0  0  0  0
   -2.9011   -9.0696    1.3572 C   0  0  0  0  0  0
   -3.6207   -7.7934    1.8603 C   0  0  0  0  0  0
   -4.9050   -8.0545    2.7222 C   0  0  0  0  0  0
   -4.4896   -8.1009    4.2108 C   0  0  0  0  0  0
   -6.0537   -6.9854    2.4867 C   0  0  0  0  0  0
   -5.6039   -5.4533    2.3579 C   0  0  0  0  0  0
   -6.4222   -4.2094    2.9159 C   0  0  0  0  0  0
   -6.9902   -3.1728    1.7653 C   0  0  0  0  0  0
   -8.0756   -3.8874    0.9618 C   0  0  0  0  0  0
   -7.5483   -1.7744    2.2925 C   0  0  0  0  0  0
   -8.9077   -1.6064    3.1542 C   0  0  0  0  0  0
   -9.4439   -2.7308    4.1052 C   0  0  0  0  0  0
  -10.1453   -2.2959    5.4720 C   0  0  0  0  0  0
  -10.7525   -3.3087    6.5208 C   0  0  0  0  0  0
  -11.2570   -2.7810    7.8898 C   0  0  0  0  0  0
  -10.2010   -2.7358    9.0612 C   0  0  0  0  0  0
   -9.6146   -4.0835    9.4996 C   0  0  0  0  0  0
   -8.8228   -4.1432   10.8366 C   0  0  0  0  0  0
   -9.5728   -4.2701   12.1956 C   0  0  0  0  0  0
   -8.7093   -4.2629   13.4493 C   0  0  0  0  0  0
  -10.6541   -3.2714   12.2943 N   0  0  0  0  0  0
   -8.0216   -5.3481   10.7360 O   0  0  0  0  0  0
   -9.1257   -1.8829    8.6538 O   0  0  0  0  0  0
   -8.6662   -0.4759    4.0087 O   0  0  0  0  0  0
   -4.3088   -5.3539    3.0100 O   0  0  0  0  0  0
   -3.3071   -4.7659    2.3057 C   0  0  0  0  0  0
   -3.4063   -4.2474    1.2099 O   0  0  0  0  0  0
   -2.0641   -4.7699    3.1521 C   0  0  0  0  0  0
   -1.1036   -3.6241    2.7959 C   0  0  0  0  0  0
   -0.0093   -3.4234    3.8522 C   0  0  0  0  0  0
   -0.5761   -2.8201    5.1163 C   0  0  0  0  0  0
   -1.0648   -1.6968    5.1720 O   0  0  0  0  0  0
   -0.4961   -3.6340    6.1793 O   0  0  0  0  0  0
   -0.4712   -4.0066    1.4506 C   0  0  0  0  0  0
   -0.8932   -3.6046    0.3769 O   0  0  0  0  0  0
    0.5567   -4.8612    1.5458 O   0  0  0  0  0  0
   -6.9477   -7.3958    1.3766 O   0  0  0  0  0  0
   -6.3934   -8.0599    0.2951 C   0  0  0  0  0  0
   -5.3730   -7.7140   -0.2860 O   0  0  0  0  0  0
   -7.2046   -9.2984   -0.1078 C   0  0  0  0  0  0
   -8.6300   -9.0186   -0.6773 C   0  0  0  0  0  0
   -9.3473   -7.7314   -0.2314 C   0  0  0  0  0  0
  -10.4060   -7.9785    0.8042 C   0  0  0  0  0  0
  -11.5100   -8.4620    0.5948 O   0  0  0  0  0  0
  -10.0110   -7.6241    2.0366 O   0  0  0  0  0  0
   -8.7305   -9.0867   -2.2062 C   0  0  0  0  0  0
   -7.8220   -9.4803   -2.9108 O   0  0  0  0  0  0
   -9.9395   -8.7801   -2.7216 O   0  0  0  0  0  0
  -10.4340   -2.6134   13.0407 H   0  0  0  0  0  0
  -11.5074   -3.7431   12.6021 H   0  0  0  0  0  0
   -8.6601   -6.0805   10.8674 H   0  0  0  0  0  0
   -9.4724   -1.2470    8.0011 H   0  0  0  0  0  0
   -9.5237   -0.1612    4.3406 H   0  0  0  0  0  0
   -0.3108   -4.5705    5.9740 H   0  0  0  0  0  0
    0.9907   -5.0783    0.6836 H   0  0  0  0  0  0
   -9.0334   -7.5540    2.0094 H   0  0  0  0  0  0
  -10.0237   -8.8987   -3.6938 H   0  0  0  0  0  0
  1  2  1  0  0  0
  2  3  1  0  0  0
  3  4  1  0  0  0
  4  5  1  0  0  0
  5  6  1  0  0  0
  5  7  1  0  0  0
  7  8  1  0  0  0
  7 39  1  0  0  0
  8  9  1  0  0  0
  8 27  1  0  0  0
  9 10  1  0  0  0
 10 11  1  0  0  0
 10 12  1  0  0  0
 12 13  1  0  0  0
 13 14  1  0  0  0
 13 26  1  0  0  0
 14 15  1  0  0  0
 15 16  1  0  0  0
 16 17  1  0  0  0
 17 18  1  0  0  0
 18 19  1  0  0  0
 18 25  1  0  0  0
 19 20  1  0  0  0
 20 21  1  0  0  0
 20 24  1  0  0  0
 21 22  1  0  0  0
 21 23  1  0  0  0
 23 51  1  0  0  0
 23 52  1  0  0  0
 24 53  1  0  0  0
 25 54  1  0  0  0
 26 55  1  0  0  0
 27 28  1  0  0  0
 28 29  2  0  0  0
 28 30  1  0  0  0
 30 31  1  0  0  0
 31 32  1  0  0  0
 31 36  1  0  0  0
 32 33  1  0  0  0
 33 34  2  0  0  0
 33 35  1  0  0  0
 35 56  1  0  0  0
 36 37  2  0  0  0
 36 38  1  0  0  0
 38 57  1  0  0  0
 39 40  1  0  0  0
 40 41  2  0  0  0
 40 42  1  0  0  0
 42 43  1  0  0  0
 43 44  1  0  0  0
 43 48  1  0  0  0
 44 45  1  0  0  0
 45 46  2  0  0  0
 45 47  1  0  0  0
 47 58  1  0  0  0
 48 49  2  0  0  0
 48 50  1  0  0  0
 50 59  1  0  0  0
M  END
>  <AUTHOR>
    GENERATED BY OPEN BABEL 2.4.1

>  <CHROM.1>
103.27396927,169.03644820,92.04573409,-41.31037288,-143.59557328,-35.38388488
-115.28826344,128.78041087,68.15762791,-69.18235017,29.33561358,143.69155691
162.64867913,179.08510587,172.73567280,-89.77319937,-62.59557479,-166.64690040
25.95753010,82.11402048,-177.57099202,-74.41779968,-114.47667129,4.36811699
-153.25444158,166.59609265,-71.79342229,95.91752747,-64.64831601,-15.34282726
-177.46960275,-46.70103731,66.52807254,-26.99510437,-102.75273259,8.37481134
-75.47483351,-17.60583583,-174.97865500,-6.24696767,-5.32416409,3.50583513
-1.11064284,0.16883975,1.07834781

>  <COMPND>
    UNNAMED

>  <MASTER>
        0    0    0    0    0    0    0    0  109    0  109    0

>  <Name>
FB1.pdb

>  <RI>
0

>  <Rbt.Current_Directory>
/home/fc/tossine/F10/p3/1_clust04

>  <Rbt.Executable>
rbdock/0.1.0

>  <Rbt.Library>
librxdock.so/0.1.0

>  <Rbt.Parameter_File>
/cluster/rxdock/data/scripts/dock.prm

>  <Rbt.Receptor>
rx_4.prm

>  <SCORE>
26.7675

>  <SCORE.INTER>
2.65967

>  <SCORE.INTER.CONST>
1

>  <SCORE.INTER.POLAR>
-1.47327

>  <SCORE.INTER.REPUL>
0.27087

>  <SCORE.INTER.ROT>
32

>  <SCORE.INTER.VDW>
-31.0856

>  <SCORE.INTER.norm>
0.0531933

>  <SCORE.INTRA>
23.7847

>  <SCORE.INTRA.DIHEDRAL>
38.8255

>  <SCORE.INTRA.DIHEDRAL.0>
47.3121

>  <SCORE.INTRA.POLAR>
0.578899

>  <SCORE.INTRA.POLAR.0>
-1.47808

>  <SCORE.INTRA.REPUL>
0

>  <SCORE.INTRA.REPUL.0>
0

>  <SCORE.INTRA.VDW>
2.40369

>  <SCORE.INTRA.VDW.0>
-2.78316

>  <SCORE.INTRA.norm>
0.475694

>  <SCORE.RESTR>
0.323103

>  <SCORE.RESTR.CAVITY>
0.323103

>  <SCORE.RESTR.norm>
0.00646205

>  <SCORE.SYSTEM>
0

>  <SCORE.SYSTEM.CONST>
0

>  <SCORE.SYSTEM.DIHEDRAL>
0

>  <SCORE.SYSTEM.norm>
0

>  <SCORE.heavy>
50

>  <SCORE.norm>
0.535349

$$$$
