FB1.pdb
  RxDock  10092020133D
librxdock.so/0.1.0
 59 58  0  0  0  0  0  0  0  0999 V2000
   -1.1636   10.4901    2.4019 C   0  0  0  0  0  0
   -0.0582    9.5176    2.8065 C   0  0  0  0  0  0
   -0.5715    8.0700    2.8781 C   0  0  0  0  0  0
    0.5031    7.0561    3.3440 C   0  0  0  0  0  0
    0.6362    6.9009    4.8992 C   0  0  0  0  0  0
    0.6940    8.3136    5.5249 C   0  0  0  0  0  0
   -0.5253    6.0385    5.5512 C   0  0  0  0  0  0
   -0.3392    4.4475    5.5445 C   0  0  0  0  0  0
   -1.4740    3.3950    5.1801 C   0  0  0  0  0  0
   -0.9301    1.9666    4.5596 C   0  0  0  0  0  0
   -1.2257    0.8563    5.5666 C   0  0  0  0  0  0
   -1.5044    1.5576    3.1286 C   0  0  0  0  0  0
   -0.6285    0.8464    1.9685 C   0  0  0  0  0  0
   -0.0609   -0.6069    2.1161 C   0  0  0  0  0  0
   -0.8552   -1.6401    3.0385 C   0  0  0  0  0  0
   -2.3679   -1.4732    3.4610 C   0  0  0  0  0  0
   -3.4774   -2.1524    2.6153 C   0  0  0  0  0  0
   -3.1659   -3.6021    2.0765 C   0  0  0  0  0  0
   -2.4247   -3.6841    0.7362 C   0  0  0  0  0  0
   -1.8136   -5.0504    0.3140 C   0  0  0  0  0  0
   -0.6822   -5.7064    1.1596 C   0  0  0  0  0  0
   -0.5065   -7.2106    1.0053 C   0  0  0  0  0  0
    0.5988   -5.0026    0.9594 N   0  0  0  0  0  0
   -2.9212   -5.9845    0.3797 O   0  0  0  0  0  0
   -2.3903   -4.2846    3.0676 O   0  0  0  0  0  0
   -1.5002    0.7946    0.8266 O   0  0  0  0  0  0
    0.7284    4.1672    4.5989 O   0  0  0  0  0  0
    1.6171    3.1985    4.9413 C   0  0  0  0  0  0
    1.5402    2.4595    5.9043 O   0  0  0  0  0  0
    2.6700    3.1186    3.8706 C   0  0  0  0  0  0
    3.3529    1.7427    3.8157 C   0  0  0  0  0  0
    3.0086    0.9651    2.5390 C   0  0  0  0  0  0
    3.6895    1.5689    1.3326 C   0  0  0  0  0  0
    4.8720    1.3906    1.0612 O   0  0  0  0  0  0
    2.8740    2.3221    0.5800 O   0  0  0  0  0  0
    4.8619    2.0182    3.8721 C   0  0  0  0  0  0
    5.4326    2.7675    3.0941 O   0  0  0  0  0  0
    5.5150    1.3289    4.8178 O   0  0  0  0  0  0
   -0.8803    6.5494    6.8976 O   0  0  0  0  0  0
   -2.0253    6.0632    7.5063 C   0  0  0  0  0  0
   -2.8379    5.3216    6.9696 O   0  0  0  0  0  0
   -2.1737    6.5582    8.9510 C   0  0  0  0  0  0
   -0.8670    7.0789    9.6262 C   0  0  0  0  0  0
   -0.9194    7.4375   11.1226 C   0  0  0  0  0  0
   -1.1823    6.2490   12.0017 C   0  0  0  0  0  0
   -0.3437    5.6490   12.6600 O   0  0  0  0  0  0
   -2.4774    5.8987   12.0174 O   0  0  0  0  0  0
    0.3594    6.1817    9.4182 C   0  0  0  0  0  0
    0.3891    5.0150    9.7570 O   0  0  0  0  0  0
    1.3777    6.7421    8.7324 O   0  0  0  0  0  0
    0.5213   -4.0561    1.3290 H   0  0  0  0  0  0
    0.7518   -4.8818   -0.0443 H   0  0  0  0  0  0
   -3.6124   -5.5882   -0.1918 H   0  0  0  0  0  0
   -2.8848   -4.2647    3.9076 H   0  0  0  0  0  0
   -1.6187    1.7013    0.4974 H   0  0  0  0  0  0
    1.9869    2.4797    0.9565 H   0  0  0  0  0  0
    6.4905    1.4916    4.8438 H   0  0  0  0  0  0
   -2.5579    5.1464   12.6409 H   0  0  0  0  0  0
    1.2286    7.6696    8.4432 H   0  0  0  0  0  0
  1  2  1  0  0  0
  2  3  1  0  0  0
  3  4  1  0  0  0
  4  5  1  0  0  0
  5  6  1  0  0  0
  5  7  1  0  0  0
  7  8  1  0  0  0
  7 39  1  0  0  0
  8  9  1  0  0  0
  8 27  1  0  0  0
  9 10  1  0  0  0
 10 11  1  0  0  0
 10 12  1  0  0  0
 12 13  1  0  0  0
 13 14  1  0  0  0
 13 26  1  0  0  0
 14 15  1  0  0  0
 15 16  1  0  0  0
 16 17  1  0  0  0
 17 18  1  0  0  0
 18 19  1  0  0  0
 18 25  1  0  0  0
 19 20  1  0  0  0
 20 21  1  0  0  0
 20 24  1  0  0  0
 21 22  1  0  0  0
 21 23  1  0  0  0
 23 51  1  0  0  0
 23 52  1  0  0  0
 24 53  1  0  0  0
 25 54  1  0  0  0
 26 55  1  0  0  0
 27 28  1  0  0  0
 28 29  2  0  0  0
 28 30  1  0  0  0
 30 31  1  0  0  0
 31 32  1  0  0  0
 31 36  1  0  0  0
 32 33  1  0  0  0
 33 34  2  0  0  0
 33 35  1  0  0  0
 35 56  1  0  0  0
 36 37  2  0  0  0
 36 38  1  0  0  0
 38 57  1  0  0  0
 39 40  1  0  0  0
 40 41  2  0  0  0
 40 42  1  0  0  0
 42 43  1  0  0  0
 43 44  1  0  0  0
 43 48  1  0  0  0
 44 45  1  0  0  0
 45 46  2  0  0  0
 45 47  1  0  0  0
 47 58  1  0  0  0
 48 49  2  0  0  0
 48 50  1  0  0  0
 50 59  1  0  0  0
M  END
>  <AUTHOR>
    GENERATED BY OPEN BABEL 2.4.1

>  <CHROM.1>
-177.54910843,86.06013126,-47.38757378,84.60808969,-136.32041516,168.88300610
152.31826039,140.10181618,112.84738769,141.48678641,66.58089142,28.47236510
70.10097462,19.38145674,93.73508332,39.80774320,-86.85704400,166.51161851
55.69846946,-63.20982060,157.94667258,54.95416860,65.47733063,7.08073840
-155.73474628,111.67800046,71.91249964,-54.41762621,78.26524064,7.40086787
178.84524676,-6.57691233,-19.65073687,-173.16722613,65.19407034,-57.95189158
102.16319494,-177.63718847,0.39001005,0.01774653,2.47725579,4.61613348,-1.53049404
-0.79457518,-2.54086147

>  <COMPND>
    UNNAMED

>  <MASTER>
        0    0    0    0    0    0    0    0  109    0  109    0

>  <Name>
FB1.pdb

>  <RI>
0

>  <Rbt.Current_Directory>
/home/fc/tossine/F10/p3/1_clust04

>  <Rbt.Executable>
rbdock/0.1.0

>  <Rbt.Library>
librxdock.so/0.1.0

>  <Rbt.Parameter_File>
/cluster/rxdock/data/scripts/dock.prm

>  <Rbt.Receptor>
rx_2.prm

>  <SCORE>
12.2556

>  <SCORE.INTER>
-6.67284

>  <SCORE.INTER.CONST>
1

>  <SCORE.INTER.POLAR>
-4.4013

>  <SCORE.INTER.REPUL>
0.196329

>  <SCORE.INTER.ROT>
32

>  <SCORE.INTER.VDW>
-30.0901

>  <SCORE.INTER.norm>
-0.133457

>  <SCORE.INTRA>
17.7671

>  <SCORE.INTRA.DIHEDRAL>
23.5787

>  <SCORE.INTRA.DIHEDRAL.0>
47.3121

>  <SCORE.INTRA.POLAR>
1.47808

>  <SCORE.INTRA.POLAR.0>
-1.47808

>  <SCORE.INTRA.REPUL>
0

>  <SCORE.INTRA.REPUL.0>
0

>  <SCORE.INTRA.VDW>
0.952301

>  <SCORE.INTRA.VDW.0>
-2.78316

>  <SCORE.INTRA.norm>
0.355342

>  <SCORE.RESTR>
1.16129

>  <SCORE.RESTR.CAVITY>
1.16129

>  <SCORE.RESTR.norm>
0.0232258

>  <SCORE.SYSTEM>
0

>  <SCORE.SYSTEM.CONST>
0

>  <SCORE.SYSTEM.DIHEDRAL>
0

>  <SCORE.SYSTEM.norm>
0

>  <SCORE.heavy>
50

>  <SCORE.norm>
0.245111

$$$$
