FB1.pdb
  RxDock  10092021063D
librxdock.so/0.1.0
 59 58  0  0  0  0  0  0  0  0999 V2000
   -3.6692   -7.5299    2.1889 C   0  0  0  0  0  0
   -2.8954   -6.3676    1.5712 C   0  0  0  0  0  0
   -1.8774   -5.7729    2.5582 C   0  0  0  0  0  0
   -2.5267   -4.9165    3.6739 C   0  0  0  0  0  0
   -1.5138   -4.1408    4.5865 C   0  0  0  0  0  0
   -0.2047   -4.9598    4.6643 C   0  0  0  0  0  0
   -1.2276   -2.6586    4.0975 C   0  0  0  0  0  0
   -0.2052   -2.4818    2.8770 C   0  0  0  0  0  0
   -0.5113   -2.8637    1.3642 C   0  0  0  0  0  0
    0.3221   -4.1661    0.7892 C   0  0  0  0  0  0
    1.3787   -3.6693   -0.1962 C   0  0  0  0  0  0
    1.0092   -5.1005    1.8844 C   0  0  0  0  0  0
    1.6707   -6.5416    1.5618 C   0  0  0  0  0  0
    0.8204   -7.8550    1.4713 C   0  0  0  0  0  0
   -0.3280   -7.9390    0.3653 C   0  0  0  0  0  0
   -1.3103   -9.1641    0.1955 C   0  0  0  0  0  0
   -0.7304  -10.5982    0.0752 C   0  0  0  0  0  0
   -1.0865  -11.6031    1.2382 C   0  0  0  0  0  0
   -0.5783  -11.2313    2.6367 C   0  0  0  0  0  0
   -0.2314  -12.3809    3.6248 C   0  0  0  0  0  0
   -0.4593  -12.2046    5.1553 C   0  0  0  0  0  0
   -1.7798  -11.5745    5.5755 C   0  0  0  0  0  0
   -0.2297  -13.4744    5.8705 N   0  0  0  0  0  0
   -1.1038  -13.4734    3.2387 O   0  0  0  0  0  0
   -2.5116  -11.7302    1.2911 O   0  0  0  0  0  0
    2.2685   -6.3915    0.2631 O   0  0  0  0  0  0
    0.1313   -1.0686    2.8303 O   0  0  0  0  0  0
    0.9957   -0.6089    3.7720 C   0  0  0  0  0  0
    1.6932   -1.2880    4.5011 O   0  0  0  0  0  0
    1.0261    0.8928    3.6976 C   0  0  0  0  0  0
    2.4509    1.4602    3.7998 C   0  0  0  0  0  0
    3.5135    0.4784    3.2895 C   0  0  0  0  0  0
    4.8914    1.0974    3.3288 C   0  0  0  0  0  0
    5.1650    2.1029    3.9752 O   0  0  0  0  0  0
    5.7943    0.4391    2.5870 O   0  0  0  0  0  0
    2.4597    2.7349    2.9448 C   0  0  0  0  0  0
    2.7022    2.7331    1.7474 O   0  0  0  0  0  0
    2.2272    3.8625    3.6307 O   0  0  0  0  0  0
   -2.4914   -1.9151    3.8740 O   0  0  0  0  0  0
   -2.5186   -0.5604    4.1606 C   0  0  0  0  0  0
   -1.5262    0.1460    4.2805 O   0  0  0  0  0  0
   -3.9482   -0.0249    4.3148 C   0  0  0  0  0  0
   -4.0746    1.3970    4.9447 C   0  0  0  0  0  0
   -3.7098    1.5648    6.4310 C   0  0  0  0  0  0
   -4.8582    1.2737    7.3534 C   0  0  0  0  0  0
   -5.0005    0.2556    8.0165 O   0  0  0  0  0  0
   -5.7443    2.2801    7.4030 O   0  0  0  0  0  0
   -3.3465    2.5038    4.1719 C   0  0  0  0  0  0
   -3.9050    3.2263    3.3701 O   0  0  0  0  0  0
   -2.0568    2.6996    4.5175 O   0  0  0  0  0  0
   -1.0989  -14.0058    5.8950 H   0  0  0  0  0  0
   -0.0213  -13.2649    6.8494 H   0  0  0  0  0  0
   -0.8726  -14.2024    3.8523 H   0  0  0  0  0  0
   -2.8002  -12.2436    0.5142 H   0  0  0  0  0  0
    1.5602   -6.4348   -0.4008 H   0  0  0  0  0  0
    5.4472   -0.3274    2.0916 H   0  0  0  0  0  0
    2.0538    3.7273    4.5952 H   0  0  0  0  0  0
   -6.5584    1.9181    7.8123 H   0  0  0  0  0  0
   -1.6043    3.4365    4.0503 H   0  0  0  0  0  0
  1  2  1  0  0  0
  2  3  1  0  0  0
  3  4  1  0  0  0
  4  5  1  0  0  0
  5  6  1  0  0  0
  5  7  1  0  0  0
  7  8  1  0  0  0
  7 39  1  0  0  0
  8  9  1  0  0  0
  8 27  1  0  0  0
  9 10  1  0  0  0
 10 11  1  0  0  0
 10 12  1  0  0  0
 12 13  1  0  0  0
 13 14  1  0  0  0
 13 26  1  0  0  0
 14 15  1  0  0  0
 15 16  1  0  0  0
 16 17  1  0  0  0
 17 18  1  0  0  0
 18 19  1  0  0  0
 18 25  1  0  0  0
 19 20  1  0  0  0
 20 21  1  0  0  0
 20 24  1  0  0  0
 21 22  1  0  0  0
 21 23  1  0  0  0
 23 51  1  0  0  0
 23 52  1  0  0  0
 24 53  1  0  0  0
 25 54  1  0  0  0
 26 55  1  0  0  0
 27 28  1  0  0  0
 28 29  2  0  0  0
 28 30  1  0  0  0
 30 31  1  0  0  0
 31 32  1  0  0  0
 31 36  1  0  0  0
 32 33  1  0  0  0
 33 34  2  0  0  0
 33 35  1  0  0  0
 35 56  1  0  0  0
 36 37  2  0  0  0
 36 38  1  0  0  0
 38 57  1  0  0  0
 39 40  1  0  0  0
 40 41  2  0  0  0
 40 42  1  0  0  0
 42 43  1  0  0  0
 43 44  1  0  0  0
 43 48  1  0  0  0
 44 45  1  0  0  0
 45 46  2  0  0  0
 45 47  1  0  0  0
 47 58  1  0  0  0
 48 49  2  0  0  0
 48 50  1  0  0  0
 50 59  1  0  0  0
M  END
>  <AUTHOR>
    GENERATED BY OPEN BABEL 2.4.1

>  <CHROM.1>
-74.29660099,-172.34072866,-30.20721325,-78.90441534,71.89505686,145.33103048
-110.28936960,75.67603441,-108.16680413,170.01995214,-83.16458829,60.73256098
-77.32603839,-176.99781939,-51.91155022,115.47863647,-62.60802812,-149.31690651
71.85593100,-146.74128411,44.48465825,179.02922377,-88.22454262,13.68573258
-136.88133762,27.54710622,176.67427992,-87.73971954,16.47590637,2.30361316
-1.67861517,18.23809090,166.87822886,-68.63507546,-86.45705350,96.52843084
103.70860251,164.60990986,-177.30793674,-0.54769899,-3.50585262,3.31766989
1.61551551,-0.43156282,-2.98759589

>  <COMPND>
    UNNAMED

>  <MASTER>
        0    0    0    0    0    0    0    0  109    0  109    0

>  <Name>
FB1.pdb

>  <RI>
0

>  <Rbt.Current_Directory>
/home/fc/tossine/F10/p3/1_clust04

>  <Rbt.Executable>
rbdock/0.1.0

>  <Rbt.Library>
librxdock.so/0.1.0

>  <Rbt.Parameter_File>
/cluster/rxdock/data/scripts/dock.prm

>  <Rbt.Receptor>
rx_3.prm

>  <SCORE>
57.2073

>  <SCORE.INTER>
30.6685

>  <SCORE.INTER.CONST>
1

>  <SCORE.INTER.POLAR>
-2.46905

>  <SCORE.INTER.REPUL>
1.11879

>  <SCORE.INTER.ROT>
32

>  <SCORE.INTER.VDW>
-3.93062

>  <SCORE.INTER.norm>
0.613371

>  <SCORE.INTRA>
19.6163

>  <SCORE.INTRA.DIHEDRAL>
16.8126

>  <SCORE.INTRA.DIHEDRAL.0>
47.3121

>  <SCORE.INTRA.POLAR>
1.3429

>  <SCORE.INTRA.POLAR.0>
-1.47808

>  <SCORE.INTRA.REPUL>
0

>  <SCORE.INTRA.REPUL.0>
0

>  <SCORE.INTRA.VDW>
6.64413

>  <SCORE.INTRA.VDW.0>
-2.78316

>  <SCORE.INTRA.norm>
0.392326

>  <SCORE.RESTR>
6.92241

>  <SCORE.RESTR.CAVITY>
6.92241

>  <SCORE.RESTR.norm>
0.138448

>  <SCORE.SYSTEM>
0

>  <SCORE.SYSTEM.CONST>
0

>  <SCORE.SYSTEM.DIHEDRAL>
0

>  <SCORE.SYSTEM.norm>
0

>  <SCORE.heavy>
50

>  <SCORE.norm>
1.14415

$$$$
