FB1.pdb
  RxDock  10092019093D
librxdock.so/0.1.0
 59 58  0  0  0  0  0  0  0  0999 V2000
    0.0889    0.9742    3.4848 C   0  0  0  0  0  0
   -0.5987   -0.2893    3.9966 C   0  0  0  0  0  0
   -0.3414   -1.4915    3.0730 C   0  0  0  0  0  0
   -1.3121   -2.6744    3.3141 C   0  0  0  0  0  0
   -2.7044   -2.5430    2.6036 C   0  0  0  0  0  0
   -2.4592   -2.2419    1.1070 C   0  0  0  0  0  0
   -3.6291   -3.8201    2.7814 C   0  0  0  0  0  0
   -4.9948   -3.8494    1.9447 C   0  0  0  0  0  0
   -6.1509   -4.9273    2.1175 C   0  0  0  0  0  0
   -5.6994   -6.4886    1.8346 C   0  0  0  0  0  0
   -5.1563   -7.0796    3.1346 C   0  0  0  0  0  0
   -6.8254   -7.4493    1.2396 C   0  0  0  0  0  0
   -6.7344   -9.0649    1.2427 C   0  0  0  0  0  0
   -5.5032   -9.8359    1.8307 C   0  0  0  0  0  0
   -4.1534   -9.8697    0.9786 C   0  0  0  0  0  0
   -3.0119  -10.9453    1.1644 C   0  0  0  0  0  0
   -2.7654  -11.5645    2.5655 C   0  0  0  0  0  0
   -1.4854  -12.4739    2.7198 C   0  0  0  0  0  0
   -0.1648  -11.7462    3.0003 C   0  0  0  0  0  0
   -0.1779  -10.5525    3.9969 C   0  0  0  0  0  0
   -1.0360  -10.6147    5.2950 C   0  0  0  0  0  0
   -2.4649  -10.1006    5.1879 C   0  0  0  0  0  0
   -1.0052  -11.9683    5.8809 N   0  0  0  0  0  0
    1.1930  -10.4434    4.4579 O   0  0  0  0  0  0
   -1.7282  -13.4016    3.7830 O   0  0  0  0  0  0
   -7.8579   -9.4968    2.0287 O   0  0  0  0  0  0
   -5.6504   -2.5760    2.1922 O   0  0  0  0  0  0
   -6.3280   -2.4482    3.3626 C   0  0  0  0  0  0
   -6.2278   -3.1724    4.3347 O   0  0  0  0  0  0
   -7.1562   -1.1947    3.2986 C   0  0  0  0  0  0
   -7.3443   -0.5405    4.6767 C   0  0  0  0  0  0
   -8.0304    0.8288    4.5895 C   0  0  0  0  0  0
   -9.4645    0.6919    4.1334 C   0  0  0  0  0  0
   -9.8745   -0.2450    3.4568 O   0  0  0  0  0  0
  -10.2534    1.6968    4.5417 O   0  0  0  0  0  0
   -8.2112   -1.5116    5.4899 C   0  0  0  0  0  0
   -9.0551   -2.2358    4.9843 O   0  0  0  0  0  0
   -8.0013   -1.4654    6.8127 O   0  0  0  0  0  0
   -2.8508   -5.0719    2.6161 O   0  0  0  0  0  0
   -2.5737   -5.5109    1.3322 C   0  0  0  0  0  0
   -2.5696   -4.7970    0.3378 O   0  0  0  0  0  0
   -2.2654   -7.0132    1.2826 C   0  0  0  0  0  0
   -0.7862   -7.4113    1.5791 C   0  0  0  0  0  0
   -0.0095   -8.1722    0.4890 C   0  0  0  0  0  0
   -0.7239   -9.4033    0.0110 C   0  0  0  0  0  0
   -0.4354  -10.5552    0.3050 O   0  0  0  0  0  0
   -1.7635   -9.1160   -0.7872 O   0  0  0  0  0  0
    0.1047   -6.2530    2.0450 C   0  0  0  0  0  0
   -0.2047   -5.0858    1.9086 O   0  0  0  0  0  0
    1.2172   -6.6126    2.7190 O   0  0  0  0  0  0
   -1.7333  -12.0420    6.5901 H   0  0  0  0  0  0
   -0.1271  -12.0831    6.3921 H   0  0  0  0  0  0
    1.3693  -11.2948    4.9111 H   0  0  0  0  0  0
   -2.5318  -13.1179    4.2566 H   0  0  0  0  0  0
   -7.7420   -9.1562    2.9315 H   0  0  0  0  0  0
  -11.2093    1.4978    4.5532 H   0  0  0  0  0  0
   -7.3222   -0.8046    7.0973 H   0  0  0  0  0  0
   -1.7606   -8.1437   -0.9138 H   0  0  0  0  0  0
    1.3300   -7.5792    2.8575 H   0  0  0  0  0  0
  1  2  1  0  0  0
  2  3  1  0  0  0
  3  4  1  0  0  0
  4  5  1  0  0  0
  5  6  1  0  0  0
  5  7  1  0  0  0
  7  8  1  0  0  0
  7 39  1  0  0  0
  8  9  1  0  0  0
  8 27  1  0  0  0
  9 10  1  0  0  0
 10 11  1  0  0  0
 10 12  1  0  0  0
 12 13  1  0  0  0
 13 14  1  0  0  0
 13 26  1  0  0  0
 14 15  1  0  0  0
 15 16  1  0  0  0
 16 17  1  0  0  0
 17 18  1  0  0  0
 18 19  1  0  0  0
 18 25  1  0  0  0
 19 20  1  0  0  0
 20 21  1  0  0  0
 20 24  1  0  0  0
 21 22  1  0  0  0
 21 23  1  0  0  0
 23 51  1  0  0  0
 23 52  1  0  0  0
 24 53  1  0  0  0
 25 54  1  0  0  0
 26 55  1  0  0  0
 27 28  1  0  0  0
 28 29  2  0  0  0
 28 30  1  0  0  0
 30 31  1  0  0  0
 31 32  1  0  0  0
 31 36  1  0  0  0
 32 33  1  0  0  0
 33 34  2  0  0  0
 33 35  1  0  0  0
 35 56  1  0  0  0
 36 37  2  0  0  0
 36 38  1  0  0  0
 38 57  1  0  0  0
 39 40  1  0  0  0
 40 41  2  0  0  0
 40 42  1  0  0  0
 42 43  1  0  0  0
 43 44  1  0  0  0
 43 48  1  0  0  0
 44 45  1  0  0  0
 45 46  2  0  0  0
 45 47  1  0  0  0
 47 58  1  0  0  0
 48 49  2  0  0  0
 48 50  1  0  0  0
 50 59  1  0  0  0
M  END
>  <AUTHOR>
    GENERATED BY OPEN BABEL 2.4.1

>  <CHROM.1>
-163.94339591,82.38947793,51.90352735,-172.79962382,-171.36877510,-80.37305038
-59.98755884,-79.67197605,87.44064290,-163.56243471,-0.54796811,-75.45227346
-62.73421182,-159.14149954,-31.02065926,-171.64528977,83.87721282,40.89784905
-11.64183868,39.87746808,-89.69809457,-62.27264775,-166.91856629,15.79038301
-149.15644034,172.55050701,67.35972284,-31.20761761,-25.61761367,-158.91131709
0.66226705,22.00973807,-85.13045544,-120.54412364,-53.27502996,-16.06810307
-104.42611815,3.93515090,-1.25778082,-3.70382879,-5.84766632,2.83522653,-2.11631764
-0.12613137,-3.06683772

>  <COMPND>
    UNNAMED

>  <MASTER>
        0    0    0    0    0    0    0    0  109    0  109    0

>  <Name>
FB1.pdb

>  <RI>
0

>  <Rbt.Current_Directory>
/home/fc/tossine/F10/p3/1_clust04

>  <Rbt.Executable>
rbdock/0.1.0

>  <Rbt.Library>
librxdock.so/0.1.0

>  <Rbt.Parameter_File>
/cluster/rxdock/data/scripts/dock.prm

>  <Rbt.Receptor>
rx_1.prm

>  <SCORE>
34.0241

>  <SCORE.INTER>
6.79362

>  <SCORE.INTER.CONST>
1

>  <SCORE.INTER.POLAR>
-2.92436

>  <SCORE.INTER.REPUL>
0.874842

>  <SCORE.INTER.ROT>
32

>  <SCORE.INTER.VDW>
-25.0378

>  <SCORE.INTER.norm>
0.135872

>  <SCORE.INTRA>
21.3299

>  <SCORE.INTRA.DIHEDRAL>
14.9219

>  <SCORE.INTRA.DIHEDRAL.0>
47.3121

>  <SCORE.INTRA.POLAR>
1.47808

>  <SCORE.INTRA.POLAR.0>
-1.47808

>  <SCORE.INTRA.REPUL>
0

>  <SCORE.INTRA.REPUL.0>
0

>  <SCORE.INTRA.VDW>
8.8435

>  <SCORE.INTRA.VDW.0>
-2.78316

>  <SCORE.INTRA.norm>
0.426598

>  <SCORE.RESTR>
5.90064

>  <SCORE.RESTR.CAVITY>
5.90064

>  <SCORE.RESTR.norm>
0.118013

>  <SCORE.SYSTEM>
0

>  <SCORE.SYSTEM.CONST>
0

>  <SCORE.SYSTEM.DIHEDRAL>
0

>  <SCORE.SYSTEM.norm>
0

>  <SCORE.heavy>
50

>  <SCORE.norm>
0.680483

$$$$
