FB1.pdb
  RxDock  10092020123D
librxdock.so/0.1.0
 59 58  0  0  0  0  0  0  0  0999 V2000
    2.5007   11.0685    3.4540 C   0  0  0  0  0  0
    2.8753   10.0835    4.5589 C   0  0  0  0  0  0
    1.6441    9.3353    5.0961 C   0  0  0  0  0  0
    1.9082    7.8354    5.3799 C   0  0  0  0  0  0
    0.6301    6.9909    5.7170 C   0  0  0  0  0  0
   -0.3164    7.0338    4.4951 C   0  0  0  0  0  0
    0.9520    5.4938    6.1331 C   0  0  0  0  0  0
    0.1704    4.9098    7.4037 C   0  0  0  0  0  0
   -1.0088    3.8449    7.3425 C   0  0  0  0  0  0
   -2.5261    4.4712    7.5059 C   0  0  0  0  0  0
   -2.8110    5.3719    6.3051 C   0  0  0  0  0  0
   -3.7088    3.4140    7.6740 C   0  0  0  0  0  0
   -4.0457    2.2507    6.6008 C   0  0  0  0  0  0
   -4.1906    2.5388    5.0671 C   0  0  0  0  0  0
   -5.0303    1.5112    4.1795 C   0  0  0  0  0  0
   -6.5684    1.2137    4.3805 C   0  0  0  0  0  0
   -7.0174    0.2246    5.4883 C   0  0  0  0  0  0
   -8.0206   -0.9131    5.0541 C   0  0  0  0  0  0
   -7.6269   -1.7305    3.8175 C   0  0  0  0  0  0
   -8.7571   -2.4029    2.9876 C   0  0  0  0  0  0
   -8.4157   -3.4608    1.8969 C   0  0  0  0  0  0
   -9.5402   -3.8369    0.9422 C   0  0  0  0  0  0
   -7.2001   -3.0767    1.1545 N   0  0  0  0  0  0
   -9.5564   -3.1163    3.9654 O   0  0  0  0  0  0
   -8.1782   -1.8087    6.1600 O   0  0  0  0  0  0
   -2.9529    1.3226    6.7066 O   0  0  0  0  0  0
    1.1757    4.2854    8.2474 O   0  0  0  0  0  0
    0.9301    4.2590    9.5832 C   0  0  0  0  0  0
   -0.0345    4.7398   10.1469 O   0  0  0  0  0  0
    2.0037    3.4429   10.2485 C   0  0  0  0  0  0
    1.7821    3.2979   11.7626 C   0  0  0  0  0  0
    0.5020    2.5222   12.0985 C   0  0  0  0  0  0
    0.3697    1.2888   11.2356 C   0  0  0  0  0  0
   -0.0889    1.3027   10.0984 O   0  0  0  0  0  0
    0.8053    0.1696   11.8327 O   0  0  0  0  0  0
    3.0081    2.5456   12.2982 C   0  0  0  0  0  0
    3.6312    1.7293   11.6366 O   0  0  0  0  0  0
    3.3123    2.8213   13.5740 O   0  0  0  0  0  0
    0.8691    4.5837    4.9649 O   0  0  0  0  0  0
    1.3390    3.2884    5.1040 C   0  0  0  0  0  0
    1.4676    2.7052    6.1725 O   0  0  0  0  0  0
    1.6881    2.6460    3.7550 C   0  0  0  0  0  0
    1.1581    1.1945    3.5385 C   0  0  0  0  0  0
    1.4685    0.1426    4.6190 C   0  0  0  0  0  0
    2.9361    0.0153    4.9094 C   0  0  0  0  0  0
    3.8433    0.3200    4.1474 O   0  0  0  0  0  0
    3.1761   -0.4656    6.1388 O   0  0  0  0  0  0
   -0.3423    1.1023    3.2343 C   0  0  0  0  0  0
   -0.7953    0.3986    2.3532 O   0  0  0  0  0  0
   -1.1478    1.7755    4.0823 O   0  0  0  0  0  0
   -6.8141   -2.2264    1.5626 H   0  0  0  0  0  0
   -7.4676   -2.8143    0.2031 H   0  0  0  0  0  0
  -10.1199   -2.4259    4.3744 H   0  0  0  0  0  0
   -7.2987   -1.9701    6.5484 H   0  0  0  0  0  0
   -3.1974    0.5142    6.2257 H   0  0  0  0  0  0
    0.7327   -0.6436   11.2971 H   0  0  0  0  0  0
    2.7421    3.5140   13.9909 H   0  0  0  0  0  0
    4.1321   -0.6804    6.1752 H   0  0  0  0  0  0
   -2.1113    1.6732    3.9162 H   0  0  0  0  0  0
  1  2  1  0  0  0
  2  3  1  0  0  0
  3  4  1  0  0  0
  4  5  1  0  0  0
  5  6  1  0  0  0
  5  7  1  0  0  0
  7  8  1  0  0  0
  7 39  1  0  0  0
  8  9  1  0  0  0
  8 27  1  0  0  0
  9 10  1  0  0  0
 10 11  1  0  0  0
 10 12  1  0  0  0
 12 13  1  0  0  0
 13 14  1  0  0  0
 13 26  1  0  0  0
 14 15  1  0  0  0
 15 16  1  0  0  0
 16 17  1  0  0  0
 17 18  1  0  0  0
 18 19  1  0  0  0
 18 25  1  0  0  0
 19 20  1  0  0  0
 20 21  1  0  0  0
 20 24  1  0  0  0
 21 22  1  0  0  0
 21 23  1  0  0  0
 23 51  1  0  0  0
 23 52  1  0  0  0
 24 53  1  0  0  0
 25 54  1  0  0  0
 26 55  1  0  0  0
 27 28  1  0  0  0
 28 29  2  0  0  0
 28 30  1  0  0  0
 30 31  1  0  0  0
 31 32  1  0  0  0
 31 36  1  0  0  0
 32 33  1  0  0  0
 33 34  2  0  0  0
 33 35  1  0  0  0
 35 56  1  0  0  0
 36 37  2  0  0  0
 36 38  1  0  0  0
 38 57  1  0  0  0
 39 40  1  0  0  0
 40 41  2  0  0  0
 40 42  1  0  0  0
 42 43  1  0  0  0
 43 44  1  0  0  0
 43 48  1  0  0  0
 44 45  1  0  0  0
 45 46  2  0  0  0
 45 47  1  0  0  0
 47 58  1  0  0  0
 48 49  2  0  0  0
 48 50  1  0  0  0
 50 59  1  0  0  0
M  END
>  <AUTHOR>
    GENERATED BY OPEN BABEL 2.4.1

>  <CHROM.1>
139.86265960,-171.03429985,61.67788667,135.54714093,106.79389311,169.23468966
-101.28101545,151.01178413,65.14751586,-57.95050248,-49.14915160,-157.51251437
168.02177565,62.50219077,-81.06557270,-129.93693434,50.65783720,-154.21730891
-43.07746003,-168.11254224,-167.24038719,79.34136039,3.64317214,-2.11833158
-177.44201042,64.14748890,44.77552551,-30.50711693,-82.88305001,-179.92599988
-3.49302987,21.75613725,-133.71496747,-52.05105766,-55.22086411,135.01398450
-23.49524971,169.05680781,-176.65135665,-1.29096167,2.31797877,6.31284914
-0.00365962,-0.70484304,-0.94474958

>  <COMPND>
    UNNAMED

>  <MASTER>
        0    0    0    0    0    0    0    0  109    0  109    0

>  <Name>
FB1.pdb

>  <RI>
0

>  <Rbt.Current_Directory>
/home/fc/tossine/F10/p3/1_clust04

>  <Rbt.Executable>
rbdock/0.1.0

>  <Rbt.Library>
librxdock.so/0.1.0

>  <Rbt.Parameter_File>
/cluster/rxdock/data/scripts/dock.prm

>  <Rbt.Receptor>
rx_2.prm

>  <SCORE>
14.992

>  <SCORE.INTER>
1.43313

>  <SCORE.INTER.CONST>
1

>  <SCORE.INTER.POLAR>
-3.57049

>  <SCORE.INTER.REPUL>
0.202438

>  <SCORE.INTER.ROT>
32

>  <SCORE.INTER.VDW>
-24.8394

>  <SCORE.INTER.norm>
0.0286626

>  <SCORE.INTRA>
11.825

>  <SCORE.INTRA.DIHEDRAL>
13.4045

>  <SCORE.INTRA.DIHEDRAL.0>
47.3121

>  <SCORE.INTRA.POLAR>
1.47808

>  <SCORE.INTRA.POLAR.0>
-1.47808

>  <SCORE.INTRA.REPUL>
0

>  <SCORE.INTRA.REPUL.0>
0

>  <SCORE.INTRA.VDW>
0.0973186

>  <SCORE.INTRA.VDW.0>
-2.78316

>  <SCORE.INTRA.norm>
0.236501

>  <SCORE.RESTR>
1.73383

>  <SCORE.RESTR.CAVITY>
1.73383

>  <SCORE.RESTR.norm>
0.0346767

>  <SCORE.SYSTEM>
0

>  <SCORE.SYSTEM.CONST>
0

>  <SCORE.SYSTEM.DIHEDRAL>
0

>  <SCORE.SYSTEM.norm>
0

>  <SCORE.heavy>
50

>  <SCORE.norm>
0.29984

$$$$
