FB1.pdb
  RxDock  10092019063D
librxdock.so/0.1.0
 59 58  0  0  0  0  0  0  0  0999 V2000
   -9.4057   -7.9505    1.3053 C   0  0  0  0  0  0
   -8.1994   -8.5399    0.5781 C   0  0  0  0  0  0
   -6.8758   -8.1221    1.2397 C   0  0  0  0  0  0
   -5.7039   -7.9747    0.2373 C   0  0  0  0  0  0
   -4.3180   -7.6296    0.8858 C   0  0  0  0  0  0
   -3.2842   -7.4427   -0.2486 C   0  0  0  0  0  0
   -4.3606   -6.3552    1.8303 C   0  0  0  0  0  0
   -2.9557   -5.7987    2.3621 C   0  0  0  0  0  0
   -2.7629   -4.4795    3.2285 C   0  0  0  0  0  0
   -2.0142   -3.2336    2.4484 C   0  0  0  0  0  0
   -2.4741   -1.9202    3.0791 C   0  0  0  0  0  0
   -0.4201   -3.2815    2.4148 C   0  0  0  0  0  0
    0.5339   -2.4913    3.4560 C   0  0  0  0  0  0
    0.4275   -0.9446    3.6852 C   0  0  0  0  0  0
    1.7714   -0.1239    3.9493 C   0  0  0  0  0  0
    2.8545   -0.5163    5.0298 C   0  0  0  0  0  0
    3.9317    0.5206    5.4442 C   0  0  0  0  0  0
    5.1157    0.7528    4.4276 C   0  0  0  0  0  0
    5.4394    2.2119    4.0834 C   0  0  0  0  0  0
    6.6489    2.4982    3.1488 C   0  0  0  0  0  0
    6.5800    2.1429    1.6341 C   0  0  0  0  0  0
    7.9115    1.9395    0.9247 C   0  0  0  0  0  0
    5.6792    0.9976    1.4034 N   0  0  0  0  0  0
    6.8120    3.9389    3.1895 O   0  0  0  0  0  0
    6.2910    0.1422    4.9714 O   0  0  0  0  0  0
    0.2514   -3.0806    4.7364 O   0  0  0  0  0  0
   -2.3846   -6.8543    3.1818 O   0  0  0  0  0  0
   -3.1915   -7.4092    4.1232 C   0  0  0  0  0  0
   -3.7026   -6.8316    5.0637 O   0  0  0  0  0  0
   -3.4353   -8.8464    3.7539 C   0  0  0  0  0  0
   -2.1552   -9.5637    3.2964 C   0  0  0  0  0  0
   -1.9594   -9.5061    1.7760 C   0  0  0  0  0  0
   -1.0905  -10.6448    1.2947 C   0  0  0  0  0  0
   -0.6024  -11.4874    2.0400 O   0  0  0  0  0  0
   -0.9026  -10.6493   -0.0333 O   0  0  0  0  0  0
   -0.9954   -8.8482    4.0028 C   0  0  0  0  0  0
   -0.0921   -8.2874    3.4010 O   0  0  0  0  0  0
   -1.0270   -8.9307    5.3400 O   0  0  0  0  0  0
   -5.1957   -5.2801    1.2416 O   0  0  0  0  0  0
   -6.2564   -4.7882    1.9839 C   0  0  0  0  0  0
   -7.4078   -5.1967    1.9085 O   0  0  0  0  0  0
   -5.8322   -3.6569    2.9296 C   0  0  0  0  0  0
   -6.8994   -2.5462    3.1787 C   0  0  0  0  0  0
   -6.4542   -1.2661    3.9092 C   0  0  0  0  0  0
   -7.5366   -0.6716    4.7632 C   0  0  0  0  0  0
   -8.5960   -0.2144    4.3567 O   0  0  0  0  0  0
   -7.2350   -0.7039    6.0702 O   0  0  0  0  0  0
   -7.6685   -2.1086    1.9260 C   0  0  0  0  0  0
   -8.2463   -1.0426    1.8447 O   0  0  0  0  0  0
   -7.5753   -2.9417    0.8684 O   0  0  0  0  0  0
    4.7925    1.1697    1.8753 H   0  0  0  0  0  0
    6.0702    0.1755    1.8690 H   0  0  0  0  0  0
    7.5521    4.1209    2.5727 H   0  0  0  0  0  0
    6.0591   -0.7593    5.2613 H   0  0  0  0  0  0
   -0.6658   -2.8624    4.9722 H   0  0  0  0  0  0
   -0.3529  -11.3809   -0.3738 H   0  0  0  0  0  0
   -0.7032   -8.1218    5.8085 H   0  0  0  0  0  0
   -6.4354   -1.2641    6.1606 H   0  0  0  0  0  0
   -8.0694   -2.6593    0.0669 H   0  0  0  0  0  0
  1  2  1  0  0  0
  2  3  1  0  0  0
  3  4  1  0  0  0
  4  5  1  0  0  0
  5  6  1  0  0  0
  5  7  1  0  0  0
  7  8  1  0  0  0
  7 39  1  0  0  0
  8  9  1  0  0  0
  8 27  1  0  0  0
  9 10  1  0  0  0
 10 11  1  0  0  0
 10 12  1  0  0  0
 12 13  1  0  0  0
 13 14  1  0  0  0
 13 26  1  0  0  0
 14 15  1  0  0  0
 15 16  1  0  0  0
 16 17  1  0  0  0
 17 18  1  0  0  0
 18 19  1  0  0  0
 18 25  1  0  0  0
 19 20  1  0  0  0
 20 21  1  0  0  0
 20 24  1  0  0  0
 21 22  1  0  0  0
 21 23  1  0  0  0
 23 51  1  0  0  0
 23 52  1  0  0  0
 24 53  1  0  0  0
 25 54  1  0  0  0
 26 55  1  0  0  0
 27 28  1  0  0  0
 28 29  2  0  0  0
 28 30  1  0  0  0
 30 31  1  0  0  0
 31 32  1  0  0  0
 31 36  1  0  0  0
 32 33  1  0  0  0
 33 34  2  0  0  0
 33 35  1  0  0  0
 35 56  1  0  0  0
 36 37  2  0  0  0
 36 38  1  0  0  0
 38 57  1  0  0  0
 39 40  1  0  0  0
 40 41  2  0  0  0
 40 42  1  0  0  0
 42 43  1  0  0  0
 43 44  1  0  0  0
 43 48  1  0  0  0
 44 45  1  0  0  0
 45 46  2  0  0  0
 45 47  1  0  0  0
 47 58  1  0  0  0
 48 49  2  0  0  0
 48 50  1  0  0  0
 50 59  1  0  0  0
M  END
>  <AUTHOR>
    GENERATED BY OPEN BABEL 2.4.1

>  <CHROM.1>
-147.87311836,-176.65835140,-176.95181666,-171.17390105,175.36814669,123.52854040
-110.50018651,-49.12371228,153.27337225,-96.55998879,-54.96413093,-143.75044222
-66.24224918,-50.94309762,-164.98196078,-76.39151502,130.83437451,176.60991737
48.20010467,70.82463535,-156.92606270,-177.85421691,50.02088295,-61.52881279
43.82050024,-92.65524209,-156.02619559,-119.61916894,-0.72687315,-179.31798222
-144.55597043,-93.28005008,146.78953219,-169.31802956,-147.08465538,-159.05263833
-64.22305417,-10.09616424,179.96954027,-1.95016832,-4.03963613,2.84317618
2.51015820,0.01381701,-2.99825044

>  <COMPND>
    UNNAMED

>  <MASTER>
        0    0    0    0    0    0    0    0  109    0  109    0

>  <Name>
FB1.pdb

>  <RI>
0

>  <Rbt.Current_Directory>
/home/fc/tossine/F10/p3/1_clust04

>  <Rbt.Executable>
rbdock/0.1.0

>  <Rbt.Library>
librxdock.so/0.1.0

>  <Rbt.Parameter_File>
/cluster/rxdock/data/scripts/dock.prm

>  <Rbt.Receptor>
rx_1.prm

>  <SCORE>
66.6893

>  <SCORE.INTER>
25.5425

>  <SCORE.INTER.CONST>
1

>  <SCORE.INTER.POLAR>
-2.61793

>  <SCORE.INTER.REPUL>
0.779088

>  <SCORE.INTER.ROT>
32

>  <SCORE.INTER.VDW>
-6.85198

>  <SCORE.INTER.norm>
0.51085

>  <SCORE.INTRA>
39.8297

>  <SCORE.INTRA.DIHEDRAL>
61.6249

>  <SCORE.INTRA.DIHEDRAL.0>
47.3121

>  <SCORE.INTRA.POLAR>
1.47808

>  <SCORE.INTRA.POLAR.0>
-1.47808

>  <SCORE.INTRA.REPUL>
0

>  <SCORE.INTRA.REPUL.0>
0

>  <SCORE.INTRA.VDW>
3.99177

>  <SCORE.INTRA.VDW.0>
-2.78316

>  <SCORE.INTRA.norm>
0.796593

>  <SCORE.RESTR>
1.3171

>  <SCORE.RESTR.CAVITY>
1.3171

>  <SCORE.RESTR.norm>
0.0263419

>  <SCORE.SYSTEM>
0

>  <SCORE.SYSTEM.CONST>
0

>  <SCORE.SYSTEM.DIHEDRAL>
0

>  <SCORE.SYSTEM.norm>
0

>  <SCORE.heavy>
50

>  <SCORE.norm>
1.33379

$$$$
