FB1.pdb
  RxDock  10092020133D
librxdock.so/0.1.0
 59 58  0  0  0  0  0  0  0  0999 V2000
    3.8060    2.2433    3.3877 C   0  0  0  0  0  0
    2.8819    2.5807    4.5555 C   0  0  0  0  0  0
    1.9140    3.7225    4.2042 C   0  0  0  0  0  0
    1.1286    4.2639    5.4248 C   0  0  0  0  0  0
    0.3710    3.1738    6.2604 C   0  0  0  0  0  0
    1.0562    3.0577    7.6416 C   0  0  0  0  0  0
   -1.1811    3.4633    6.4195 C   0  0  0  0  0  0
   -2.1192    2.2148    6.7762 C   0  0  0  0  0  0
   -3.7042    2.1961    6.6512 C   0  0  0  0  0  0
   -4.5066    3.0700    7.7974 C   0  0  0  0  0  0
   -4.5903    4.5221    7.3298 C   0  0  0  0  0  0
   -5.9631    2.5488    8.1872 C   0  0  0  0  0  0
   -6.3229    0.9996    8.4855 C   0  0  0  0  0  0
   -7.6149    0.3138    7.9229 C   0  0  0  0  0  0
   -7.4437   -0.9178    6.9214 C   0  0  0  0  0  0
   -7.0612   -0.7759    5.3956 C   0  0  0  0  0  0
   -8.0185   -0.0232    4.4341 C   0  0  0  0  0  0
   -8.5437   -0.8319    3.1853 C   0  0  0  0  0  0
   -9.0539   -2.2518    3.4610 C   0  0  0  0  0  0
  -10.2950   -2.4235    4.3821 C   0  0  0  0  0  0
  -10.8938   -3.8363    4.6480 C   0  0  0  0  0  0
  -12.0859   -3.9001    5.5926 C   0  0  0  0  0  0
  -11.1883   -4.5295    3.3795 N   0  0  0  0  0  0
   -9.8567   -1.9508    5.6814 O   0  0  0  0  0  0
   -9.6012   -0.0775    2.5835 O   0  0  0  0  0  0
   -5.2285    0.2521    7.9286 O   0  0  0  0  0  0
   -1.6785    1.1198    5.9281 O   0  0  0  0  0  0
   -1.7285    1.3208    4.5855 C   0  0  0  0  0  0
   -2.1679    2.3047    4.0213 O   0  0  0  0  0  0
   -1.0537    0.1618    3.9053 C   0  0  0  0  0  0
   -1.3047    0.1396    2.3891 C   0  0  0  0  0  0
   -0.3785    1.0944    1.6250 C   0  0  0  0  0  0
    1.0412    0.5773    1.6052 C   0  0  0  0  0  0
    1.7061    0.3822    2.6169 O   0  0  0  0  0  0
    1.5092    0.3481    0.3694 O   0  0  0  0  0  0
   -1.0533   -1.3068    1.9410 C   0  0  0  0  0  0
   -0.0317   -1.9203    2.2101 O   0  0  0  0  0  0
   -2.0286   -1.8289    1.1847 O   0  0  0  0  0  0
   -1.4212    4.6135    7.3245 O   0  0  0  0  0  0
   -1.3944    5.8904    6.7888 C   0  0  0  0  0  0
   -0.9107    6.1796    5.7021 O   0  0  0  0  0  0
   -2.0463    6.9258    7.7147 C   0  0  0  0  0  0
   -1.0828    7.9908    8.3247 C   0  0  0  0  0  0
   -0.4395    7.6865    9.6900 C   0  0  0  0  0  0
    0.1714    6.3166    9.7583 C   0  0  0  0  0  0
   -0.3678    5.3167   10.2122 O   0  0  0  0  0  0
    1.4077    6.2796    9.2383 O   0  0  0  0  0  0
    0.0412    8.4459    7.3857 C   0  0  0  0  0  0
    1.2162    8.2319    7.6101 O   0  0  0  0  0  0
   -0.3633    9.0115    6.2291 O   0  0  0  0  0  0
  -10.3122   -4.8076    2.9395 H   0  0  0  0  0  0
  -11.6078   -3.8596    2.7309 H   0  0  0  0  0  0
  -10.6841   -1.8407    6.1958 H   0  0  0  0  0  0
   -9.8720   -0.5328    1.7650 H   0  0  0  0  0  0
   -4.4818    0.3054    8.5483 H   0  0  0  0  0  0
    2.4144   -0.0158    0.3276 H   0  0  0  0  0  0
   -2.7786   -1.2111    0.9988 H   0  0  0  0  0  0
    1.5595    7.1490    8.8112 H   0  0  0  0  0  0
   -1.3308    9.1687    6.1547 H   0  0  0  0  0  0
  1  2  1  0  0  0
  2  3  1  0  0  0
  3  4  1  0  0  0
  4  5  1  0  0  0
  5  6  1  0  0  0
  5  7  1  0  0  0
  7  8  1  0  0  0
  7 39  1  0  0  0
  8  9  1  0  0  0
  8 27  1  0  0  0
  9 10  1  0  0  0
 10 11  1  0  0  0
 10 12  1  0  0  0
 12 13  1  0  0  0
 13 14  1  0  0  0
 13 26  1  0  0  0
 14 15  1  0  0  0
 15 16  1  0  0  0
 16 17  1  0  0  0
 17 18  1  0  0  0
 18 19  1  0  0  0
 18 25  1  0  0  0
 19 20  1  0  0  0
 20 21  1  0  0  0
 20 24  1  0  0  0
 21 22  1  0  0  0
 21 23  1  0  0  0
 23 51  1  0  0  0
 23 52  1  0  0  0
 24 53  1  0  0  0
 25 54  1  0  0  0
 26 55  1  0  0  0
 27 28  1  0  0  0
 28 29  2  0  0  0
 28 30  1  0  0  0
 30 31  1  0  0  0
 31 32  1  0  0  0
 31 36  1  0  0  0
 32 33  1  0  0  0
 33 34  2  0  0  0
 33 35  1  0  0  0
 35 56  1  0  0  0
 36 37  2  0  0  0
 36 38  1  0  0  0
 38 57  1  0  0  0
 39 40  1  0  0  0
 40 41  2  0  0  0
 40 42  1  0  0  0
 42 43  1  0  0  0
 43 44  1  0  0  0
 43 48  1  0  0  0
 44 45  1  0  0  0
 45 46  2  0  0  0
 45 47  1  0  0  0
 47 58  1  0  0  0
 48 49  2  0  0  0
 48 50  1  0  0  0
 50 59  1  0  0  0
M  END
>  <AUTHOR>
    GENERATED BY OPEN BABEL 2.4.1

>  <CHROM.1>
-170.02653615,-52.87615766,111.85687012,158.84060380,-165.01244580,85.70878329
-72.93820036,-58.98333749,85.51659995,45.79364577,-136.53354120,117.63719340
78.36949587,-77.37764097,-62.79015756,-122.45202187,46.37086259,63.14189006
174.81484663,177.37940039,178.46085067,165.92144391,71.95456992,-3.85073715
168.17445827,81.17247918,71.44744135,-51.93486817,-60.54796299,-178.00181779
0.99118076,-16.61932725,112.95175571,-91.46095449,48.61512735,-115.04021624
-96.02340492,-8.40208121,6.86100243,-2.93201520,2.02979105,5.51367663,-0.60442509
-0.35178547,-2.39783083

>  <COMPND>
    UNNAMED

>  <MASTER>
        0    0    0    0    0    0    0    0  109    0  109    0

>  <Name>
FB1.pdb

>  <RI>
0

>  <Rbt.Current_Directory>
/home/fc/tossine/F10/p3/1_clust04

>  <Rbt.Executable>
rbdock/0.1.0

>  <Rbt.Library>
librxdock.so/0.1.0

>  <Rbt.Parameter_File>
/cluster/rxdock/data/scripts/dock.prm

>  <Rbt.Receptor>
rx_2.prm

>  <SCORE>
13.7508

>  <SCORE.INTER>
2.15776

>  <SCORE.INTER.CONST>
1

>  <SCORE.INTER.POLAR>
-1.93707

>  <SCORE.INTER.REPUL>
0.437825

>  <SCORE.INTER.ROT>
32

>  <SCORE.INTER.VDW>
-30.8453

>  <SCORE.INTER.norm>
0.0431553

>  <SCORE.INTRA>
8.47728

>  <SCORE.INTRA.DIHEDRAL>
13.3583

>  <SCORE.INTRA.DIHEDRAL.0>
47.3121

>  <SCORE.INTRA.POLAR>
0.658186

>  <SCORE.INTRA.POLAR.0>
-1.47808

>  <SCORE.INTRA.REPUL>
0

>  <SCORE.INTRA.REPUL.0>
0

>  <SCORE.INTRA.VDW>
-0.439692

>  <SCORE.INTRA.VDW.0>
-2.78316

>  <SCORE.INTRA.norm>
0.169546

>  <SCORE.RESTR>
3.11575

>  <SCORE.RESTR.CAVITY>
3.11575

>  <SCORE.RESTR.norm>
0.0623151

>  <SCORE.SYSTEM>
0

>  <SCORE.SYSTEM.CONST>
0

>  <SCORE.SYSTEM.DIHEDRAL>
0

>  <SCORE.SYSTEM.norm>
0

>  <SCORE.heavy>
50

>  <SCORE.norm>
0.275016

$$$$
