FB1.pdb
  RxDock  10092018163D
librxdock.so/0.1.0
 59 58  0  0  0  0  0  0  0  0999 V2000
   -5.3476    6.0012    2.0252 C   0  0  0  0  0  0
   -4.3721    5.9933    3.1998 C   0  0  0  0  0  0
   -4.8505    5.0682    4.3309 C   0  0  0  0  0  0
   -3.6936    4.3700    5.0886 C   0  0  0  0  0  0
   -2.9524    5.2696    6.1383 C   0  0  0  0  0  0
   -3.8295    5.3569    7.4086 C   0  0  0  0  0  0
   -1.4920    4.7589    6.4910 C   0  0  0  0  0  0
   -0.4741    5.8354    7.1001 C   0  0  0  0  0  0
    1.0298    5.5367    7.5211 C   0  0  0  0  0  0
    1.2203    4.9005    9.0312 C   0  0  0  0  0  0
    0.8174    5.9580   10.0575 C   0  0  0  0  0  0
    0.4362    3.5429    9.3261 C   0  0  0  0  0  0
    0.6148    2.6662   10.6745 C   0  0  0  0  0  0
    0.1098    3.1628   12.0725 C   0  0  0  0  0  0
    0.3415    2.2201   13.3401 C   0  0  0  0  0  0
   -0.0864    0.7013   13.4081 C   0  0  0  0  0  0
    0.5742   -0.2330   14.4560 C   0  0  0  0  0  0
    2.1180   -0.5080   14.2822 C   0  0  0  0  0  0
    2.9422    0.6205   13.6499 C   0  0  0  0  0  0
    3.4953    0.4126   12.2114 C   0  0  0  0  0  0
    3.5551    1.6014   11.2071 C   0  0  0  0  0  0
    4.0372    2.9341   11.7628 C   0  0  0  0  0  0
    4.3128    1.2295    9.9971 N   0  0  0  0  0  0
    4.8764    0.0129   12.4028 O   0  0  0  0  0  0
    2.6627   -0.8002   15.5736 O   0  0  0  0  0  0
   -0.1104    1.4506   10.4237 O   0  0  0  0  0  0
   -0.3674    6.8974    6.1135 O   0  0  0  0  0  0
   -0.0312    8.1318    6.5699 C   0  0  0  0  0  0
    0.3719    8.4013    7.6854 O   0  0  0  0  0  0
   -0.1428    9.1072    5.4308 C   0  0  0  0  0  0
    1.0433    9.0161    4.4574 C   0  0  0  0  0  0
    1.0110   10.1135    3.3859 C   0  0  0  0  0  0
   -0.3868   10.3068    2.8455 C   0  0  0  0  0  0
   -1.0440    9.4101    2.3281 O   0  0  0  0  0  0
   -0.8460   11.5591    2.9870 O   0  0  0  0  0  0
    2.3067    9.1586    5.3173 C   0  0  0  0  0  0
    2.5203   10.1247    6.0339 O   0  0  0  0  0  0
    3.1848    8.1555    5.1806 O   0  0  0  0  0  0
   -1.5402    3.5195    7.3043 O   0  0  0  0  0  0
   -0.8910    2.3928    6.8277 C   0  0  0  0  0  0
   -0.5036    1.4648    7.5257 O   0  0  0  0  0  0
   -0.7038    2.4270    5.3052 C   0  0  0  0  0  0
   -1.5333    1.3814    4.4970 C   0  0  0  0  0  0
   -1.3555   -0.1079    4.8450 C   0  0  0  0  0  0
   -0.0832   -0.6898    4.3002 C   0  0  0  0  0  0
    1.0423   -0.2508    4.4932 O   0  0  0  0  0  0
   -0.2963   -1.7925    3.5661 O   0  0  0  0  0  0
   -3.0409    1.6595    4.4535 C   0  0  0  0  0  0
   -3.7802    1.4402    5.3927 O   0  0  0  0  0  0
   -3.4856    2.2685    3.3342 O   0  0  0  0  0  0
    4.5041    2.0688    9.4517 H   0  0  0  0  0  0
    3.7124    0.6577    9.3987 H   0  0  0  0  0  0
    5.2342   -0.0805   11.4947 H   0  0  0  0  0  0
    3.5358   -1.2158   15.4486 H   0  0  0  0  0  0
    0.1537    1.1177    9.5497 H   0  0  0  0  0  0
   -1.7349   11.7211    2.6169 H   0  0  0  0  0  0
    2.9623    7.5106    4.4641 H   0  0  0  0  0  0
    0.5853   -2.1229    3.2924 H   0  0  0  0  0  0
   -2.7929    2.4875    2.6721 H   0  0  0  0  0  0
  1  2  1  0  0  0
  2  3  1  0  0  0
  3  4  1  0  0  0
  4  5  1  0  0  0
  5  6  1  0  0  0
  5  7  1  0  0  0
  7  8  1  0  0  0
  7 39  1  0  0  0
  8  9  1  0  0  0
  8 27  1  0  0  0
  9 10  1  0  0  0
 10 11  1  0  0  0
 10 12  1  0  0  0
 12 13  1  0  0  0
 13 14  1  0  0  0
 13 26  1  0  0  0
 14 15  1  0  0  0
 15 16  1  0  0  0
 16 17  1  0  0  0
 17 18  1  0  0  0
 18 19  1  0  0  0
 18 25  1  0  0  0
 19 20  1  0  0  0
 20 21  1  0  0  0
 20 24  1  0  0  0
 21 22  1  0  0  0
 21 23  1  0  0  0
 23 51  1  0  0  0
 23 52  1  0  0  0
 24 53  1  0  0  0
 25 54  1  0  0  0
 26 55  1  0  0  0
 27 28  1  0  0  0
 28 29  2  0  0  0
 28 30  1  0  0  0
 30 31  1  0  0  0
 31 32  1  0  0  0
 31 36  1  0  0  0
 32 33  1  0  0  0
 33 34  2  0  0  0
 33 35  1  0  0  0
 35 56  1  0  0  0
 36 37  2  0  0  0
 36 38  1  0  0  0
 38 57  1  0  0  0
 39 40  1  0  0  0
 40 41  2  0  0  0
 40 42  1  0  0  0
 42 43  1  0  0  0
 43 44  1  0  0  0
 43 48  1  0  0  0
 44 45  1  0  0  0
 45 46  2  0  0  0
 45 47  1  0  0  0
 47 58  1  0  0  0
 48 49  2  0  0  0
 48 50  1  0  0  0
 50 59  1  0  0  0
M  END
>  <AUTHOR>
    GENERATED BY OPEN BABEL 2.4.1

>  <CHROM.1>
146.22029095,78.34876709,77.95299625,158.27084620,179.99616246,122.85615072
-83.65853339,153.99257455,-66.95480872,172.76613875,69.30043846,-179.79631221
48.12623599,-52.21820528,160.06791297,-65.50805609,30.52052542,-109.47577301
163.92040225,143.20093933,42.55143869,-177.66314026,-168.24246774,11.11040500
-76.98940029,-173.55338598,-42.66397078,-57.44726507,-57.56900035,177.85699602
7.20974670,156.86770519,-111.77654142,-56.77346061,-76.74350291,-76.21910166
54.60276963,-177.31024191,-1.26310128,-0.02896522,4.02074399,7.46337342,2.07685071
-0.91531858,-0.45856716

>  <COMPND>
    UNNAMED

>  <MASTER>
        0    0    0    0    0    0    0    0  109    0  109    0

>  <Name>
FB1.pdb

>  <RI>
0

>  <Rbt.Current_Directory>
/home/fc/tossine/F10/p3/1_clust04

>  <Rbt.Executable>
rbdock/0.1.0

>  <Rbt.Library>
librxdock.so/0.1.0

>  <Rbt.Parameter_File>
/cluster/rxdock/data/scripts/dock.prm

>  <Rbt.Receptor>
rx_0.prm

>  <SCORE>
6.22435

>  <SCORE.INTER>
-3.67204

>  <SCORE.INTER.CONST>
1

>  <SCORE.INTER.POLAR>
-2.64598

>  <SCORE.INTER.REPUL>
0.555125

>  <SCORE.INTER.ROT>
32

>  <SCORE.INTER.VDW>
-34.8513

>  <SCORE.INTER.norm>
-0.0734408

>  <SCORE.INTRA>
9.42408

>  <SCORE.INTRA.DIHEDRAL>
15.7837

>  <SCORE.INTRA.DIHEDRAL.0>
47.3121

>  <SCORE.INTRA.POLAR>
0.492201

>  <SCORE.INTRA.POLAR.0>
-1.47808

>  <SCORE.INTRA.REPUL>
0

>  <SCORE.INTRA.REPUL.0>
0

>  <SCORE.INTRA.VDW>
-0.141245

>  <SCORE.INTRA.VDW.0>
-2.78316

>  <SCORE.INTRA.norm>
0.188482

>  <SCORE.RESTR>
0.47231

>  <SCORE.RESTR.CAVITY>
0.47231

>  <SCORE.RESTR.norm>
0.0094462

>  <SCORE.SYSTEM>
0

>  <SCORE.SYSTEM.CONST>
0

>  <SCORE.SYSTEM.DIHEDRAL>
0

>  <SCORE.SYSTEM.norm>
0

>  <SCORE.heavy>
50

>  <SCORE.norm>
0.124487

$$$$
