FB1.pdb
  RxDock  10092018113D
librxdock.so/0.1.0
 59 58  0  0  0  0  0  0  0  0999 V2000
    1.0314    4.5235   11.7870 C   0  0  0  0  0  0
    0.6227    4.5273   10.3159 C   0  0  0  0  0  0
    0.4294    3.1010    9.7750 C   0  0  0  0  0  0
   -0.1055    3.0589    8.3218 C   0  0  0  0  0  0
   -0.6333    1.6587    7.8514 C   0  0  0  0  0  0
   -1.7597    1.2161    8.8137 C   0  0  0  0  0  0
   -1.1347    1.6440    6.3460 C   0  0  0  0  0  0
   -2.2605    2.7109    5.9456 C   0  0  0  0  0  0
   -3.6981    2.8194    6.6163 C   0  0  0  0  0  0
   -4.7036    1.5444    6.3257 C   0  0  0  0  0  0
   -5.5829    1.3296    7.5565 C   0  0  0  0  0  0
   -5.6213    1.6547    5.0255 C   0  0  0  0  0  0
   -6.8575    0.6625    4.7002 C   0  0  0  0  0  0
   -6.6954   -0.8957    4.6575 C   0  0  0  0  0  0
   -6.2657   -1.5749    3.2779 C   0  0  0  0  0  0
   -4.8489   -2.2182    3.0074 C   0  0  0  0  0  0
   -4.5568   -2.8736    1.6317 C   0  0  0  0  0  0
   -3.1774   -3.6256    1.4871 C   0  0  0  0  0  0
   -3.1453   -5.0835    1.9624 C   0  0  0  0  0  0
   -2.1628   -6.0655    1.2633 C   0  0  0  0  0  0
   -2.0381   -7.5398    1.7492 C   0  0  0  0  0  0
   -1.0463   -8.4186    0.9998 C   0  0  0  0  0  0
   -1.7975   -7.5952    3.2037 N   0  0  0  0  0  0
   -2.6458   -6.1595   -0.1012 O   0  0  0  0  0  0
   -2.7966   -3.5885    0.1074 O   0  0  0  0  0  0
   -7.8155    0.9116    5.7427 O   0  0  0  0  0  0
   -1.6684    4.0224    6.1496 O   0  0  0  0  0  0
   -2.0274    5.0032    5.2810 C   0  0  0  0  0  0
   -3.1408    5.1919    4.8292 O   0  0  0  0  0  0
   -0.8355    5.8890    5.0441 C   0  0  0  0  0  0
   -0.8812    7.1767    5.8820 C   0  0  0  0  0  0
   -0.4688    6.9444    7.3413 C   0  0  0  0  0  0
   -1.0438    8.0091    8.2463 C   0  0  0  0  0  0
   -1.1047    9.1960    7.9439 O   0  0  0  0  0  0
   -1.4862    7.5317    9.4190 O   0  0  0  0  0  0
    0.0944    8.1524    5.2095 C   0  0  0  0  0  0
    1.2325    8.3407    5.6115 O   0  0  0  0  0  0
   -0.4218    8.8217    4.1695 O   0  0  0  0  0  0
    0.0082    1.6631    5.4008 O   0  0  0  0  0  0
   -0.2568    1.5738    4.0444 C   0  0  0  0  0  0
   -1.3702    1.4147    3.5614 O   0  0  0  0  0  0
    1.0131    1.6979    3.1921 C   0  0  0  0  0  0
    2.0670    0.5624    3.3775 C   0  0  0  0  0  0
    3.2930    0.5542    2.4462 C   0  0  0  0  0  0
    4.0029    1.8765    2.3994 C   0  0  0  0  0  0
    4.8330    2.2696    3.2074 O   0  0  0  0  0  0
    3.6450    2.6138    1.3370 O   0  0  0  0  0  0
    2.5867    0.4028    4.8117 C   0  0  0  0  0  0
    2.6094   -0.6653    5.3907 O   0  0  0  0  0  0
    3.1220    1.5132    5.3609 O   0  0  0  0  0  0
   -2.6030   -7.2045    3.6906 H   0  0  0  0  0  0
   -1.0227   -6.9678    3.4307 H   0  0  0  0  0  0
   -3.5989   -6.3710   -0.0114 H   0  0  0  0  0  0
   -3.4817   -4.0509   -0.4097 H   0  0  0  0  0  0
   -7.5644    0.3785    6.5155 H   0  0  0  0  0  0
   -1.3455    6.5757    9.5594 H   0  0  0  0  0  0
   -1.3400    8.5492    3.9215 H   0  0  0  0  0  0
    4.1135    3.4711    1.4189 H   0  0  0  0  0  0
    3.5176    1.3916    6.2525 H   0  0  0  0  0  0
  1  2  1  0  0  0
  2  3  1  0  0  0
  3  4  1  0  0  0
  4  5  1  0  0  0
  5  6  1  0  0  0
  5  7  1  0  0  0
  7  8  1  0  0  0
  7 39  1  0  0  0
  8  9  1  0  0  0
  8 27  1  0  0  0
  9 10  1  0  0  0
 10 11  1  0  0  0
 10 12  1  0  0  0
 12 13  1  0  0  0
 13 14  1  0  0  0
 13 26  1  0  0  0
 14 15  1  0  0  0
 15 16  1  0  0  0
 16 17  1  0  0  0
 17 18  1  0  0  0
 18 19  1  0  0  0
 18 25  1  0  0  0
 19 20  1  0  0  0
 20 21  1  0  0  0
 20 24  1  0  0  0
 21 22  1  0  0  0
 21 23  1  0  0  0
 23 51  1  0  0  0
 23 52  1  0  0  0
 24 53  1  0  0  0
 25 54  1  0  0  0
 26 55  1  0  0  0
 27 28  1  0  0  0
 28 29  2  0  0  0
 28 30  1  0  0  0
 30 31  1  0  0  0
 31 32  1  0  0  0
 31 36  1  0  0  0
 32 33  1  0  0  0
 33 34  2  0  0  0
 33 35  1  0  0  0
 35 56  1  0  0  0
 36 37  2  0  0  0
 36 38  1  0  0  0
 38 57  1  0  0  0
 39 40  1  0  0  0
 40 41  2  0  0  0
 40 42  1  0  0  0
 42 43  1  0  0  0
 43 44  1  0  0  0
 43 48  1  0  0  0
 44 45  1  0  0  0
 45 46  2  0  0  0
 45 47  1  0  0  0
 47 58  1  0  0  0
 48 49  2  0  0  0
 48 50  1  0  0  0
 50 59  1  0  0  0
M  END
>  <AUTHOR>
    GENERATED BY OPEN BABEL 2.4.1

>  <CHROM.1>
174.95250185,-166.24595804,57.94020400,-55.42432920,-58.96834515,176.25250434
-67.25603809,144.85640048,146.47529640,-168.33596764,-54.40802221,-88.04777786
-83.72472114,108.88562711,178.86737885,-173.83669657,85.17735854,150.13657643
-61.15862820,177.05765555,-179.88747598,-51.49700793,63.49781274,39.57746695
-99.37046444,78.26640517,-156.48139977,-99.34579537,-40.13385881,2.76404375
-4.73855397,-3.68435510,64.09562158,173.81739181,51.24086217,129.24792608
83.18496970,176.70313588,-175.42265773,-1.29900438,1.50879419,4.94795541
1.36710300,0.23091030,0.49403836

>  <COMPND>
    UNNAMED

>  <MASTER>
        0    0    0    0    0    0    0    0  109    0  109    0

>  <Name>
FB1.pdb

>  <RI>
0

>  <Rbt.Current_Directory>
/home/fc/tossine/F10/p3/1_clust04

>  <Rbt.Executable>
rbdock/0.1.0

>  <Rbt.Library>
librxdock.so/0.1.0

>  <Rbt.Parameter_File>
/cluster/rxdock/data/scripts/dock.prm

>  <Rbt.Receptor>
rx_0.prm

>  <SCORE>
11.9887

>  <SCORE.INTER>
3.83745

>  <SCORE.INTER.CONST>
1

>  <SCORE.INTER.POLAR>
-2.33867

>  <SCORE.INTER.REPUL>
0.849651

>  <SCORE.INTER.ROT>
32

>  <SCORE.INTER.VDW>
-29.8593

>  <SCORE.INTER.norm>
0.0767491

>  <SCORE.INTRA>
6.21231

>  <SCORE.INTRA.DIHEDRAL>
4.09911

>  <SCORE.INTRA.DIHEDRAL.0>
47.3121

>  <SCORE.INTRA.POLAR>
1.47808

>  <SCORE.INTRA.POLAR.0>
-1.47808

>  <SCORE.INTRA.REPUL>
0

>  <SCORE.INTRA.REPUL.0>
0

>  <SCORE.INTRA.VDW>
-0.862708

>  <SCORE.INTRA.VDW.0>
-2.78316

>  <SCORE.INTRA.norm>
0.124246

>  <SCORE.RESTR>
1.9389

>  <SCORE.RESTR.CAVITY>
1.9389

>  <SCORE.RESTR.norm>
0.038778

>  <SCORE.SYSTEM>
0

>  <SCORE.SYSTEM.CONST>
0

>  <SCORE.SYSTEM.DIHEDRAL>
0

>  <SCORE.SYSTEM.norm>
0

>  <SCORE.heavy>
50

>  <SCORE.norm>
0.239773

$$$$
