FB1.pdb
  RxDock  10092018113D
librxdock.so/0.1.0
 59 58  0  0  0  0  0  0  0  0999 V2000
   -4.9292    4.4697    2.8361 C   0  0  0  0  0  0
   -5.2166    3.6114    4.0657 C   0  0  0  0  0  0
   -4.2473    3.9241    5.2176 C   0  0  0  0  0  0
   -2.8651    3.2417    5.0641 C   0  0  0  0  0  0
   -1.8382    3.5632    6.2053 C   0  0  0  0  0  0
   -2.0797    2.5739    7.3687 C   0  0  0  0  0  0
   -0.3257    3.5187    5.7273 C   0  0  0  0  0  0
    0.2716    2.0831    5.3422 C   0  0  0  0  0  0
   -0.1915    1.2019    4.1024 C   0  0  0  0  0  0
   -0.2606   -0.4219    4.3851 C   0  0  0  0  0  0
   -1.3401   -0.6863    5.4333 C   0  0  0  0  0  0
   -0.5143   -1.3473    3.1107 C   0  0  0  0  0  0
   -1.8637   -1.3128    2.2182 C   0  0  0  0  0  0
   -2.1381   -2.3436    1.0700 C   0  0  0  0  0  0
   -2.8619   -3.7171    1.4423 C   0  0  0  0  0  0
   -2.1580   -5.1305    1.4073 C   0  0  0  0  0  0
   -0.7188   -5.2541    0.8409 C   0  0  0  0  0  0
   -0.0921   -6.7018    0.8164 C   0  0  0  0  0  0
   -0.6485   -7.6653   -0.2393 C   0  0  0  0  0  0
   -1.2264   -9.0279    0.2376 C   0  0  0  0  0  0
   -0.2980  -10.0989    0.8830 C   0  0  0  0  0  0
    0.0378   -9.9058    2.3552 C   0  0  0  0  0  0
   -0.8119  -11.4590    0.6333 N   0  0  0  0  0  0
   -2.1775   -8.6806    1.2762 O   0  0  0  0  0  0
    1.3188   -6.5690    0.6123 O   0  0  0  0  0  0
   -2.9338   -1.5051    3.1587 O   0  0  0  0  0  0
    1.6964    2.2788    5.1323 O   0  0  0  0  0  0
    2.0764    2.8207    3.9460 C   0  0  0  0  0  0
    2.0199    3.9968    3.6413 O   0  0  0  0  0  0
    2.6787    1.7347    3.0979 C   0  0  0  0  0  0
    3.9126    1.0916    3.7508 C   0  0  0  0  0  0
    5.0397    2.1017    4.0015 C   0  0  0  0  0  0
    5.6852    2.5312    2.7045 C   0  0  0  0  0  0
    5.4015    2.0489    1.6134 O   0  0  0  0  0  0
    6.6028    3.4972    2.8586 O   0  0  0  0  0  0
    3.4271    0.5049    5.0835 C   0  0  0  0  0  0
    3.7690    0.9457    6.1703 O   0  0  0  0  0  0
    2.6323   -0.5669    4.9590 O   0  0  0  0  0  0
   -0.0681    4.5277    4.6712 O   0  0  0  0  0  0
   -0.3683    5.8530    4.9386 C   0  0  0  0  0  0
   -1.0864    6.2333    5.8541 O   0  0  0  0  0  0
    0.3051    6.8149    3.9509 C   0  0  0  0  0  0
   -0.1914    8.2933    4.0000 C   0  0  0  0  0  0
    0.3235    9.1918    5.1393 C   0  0  0  0  0  0
    0.1681    8.5663    6.4954 C   0  0  0  0  0  0
    1.0021    7.8727    7.0610 O   0  0  0  0  0  0
   -1.0097    8.8630    7.0655 O   0  0  0  0  0  0
   -0.0076    9.0715    2.6912 C   0  0  0  0  0  0
    1.0792    9.2550    2.1792 O   0  0  0  0  0  0
   -1.1480    9.4536    2.0792 O   0  0  0  0  0  0
   -1.2780  -11.4789   -0.2727 H   0  0  0  0  0  0
   -1.5489  -11.6597    1.3131 H   0  0  0  0  0  0
   -2.9501   -8.3195    0.7924 H   0  0  0  0  0  0
    1.4706   -6.3412   -0.3235 H   0  0  0  0  0  0
   -3.3172   -0.6351    3.3600 H   0  0  0  0  0  0
    6.9782    3.8512    2.0296 H   0  0  0  0  0  0
    2.4731   -0.8532    4.0255 H   0  0  0  0  0  0
   -1.5019    9.4161    6.4228 H   0  0  0  0  0  0
   -1.9777    9.1996    2.5412 H   0  0  0  0  0  0
  1  2  1  0  0  0
  2  3  1  0  0  0
  3  4  1  0  0  0
  4  5  1  0  0  0
  5  6  1  0  0  0
  5  7  1  0  0  0
  7  8  1  0  0  0
  7 39  1  0  0  0
  8  9  1  0  0  0
  8 27  1  0  0  0
  9 10  1  0  0  0
 10 11  1  0  0  0
 10 12  1  0  0  0
 12 13  1  0  0  0
 13 14  1  0  0  0
 13 26  1  0  0  0
 14 15  1  0  0  0
 15 16  1  0  0  0
 16 17  1  0  0  0
 17 18  1  0  0  0
 18 19  1  0  0  0
 18 25  1  0  0  0
 19 20  1  0  0  0
 20 21  1  0  0  0
 20 24  1  0  0  0
 21 22  1  0  0  0
 21 23  1  0  0  0
 23 51  1  0  0  0
 23 52  1  0  0  0
 24 53  1  0  0  0
 25 54  1  0  0  0
 26 55  1  0  0  0
 27 28  1  0  0  0
 28 29  2  0  0  0
 28 30  1  0  0  0
 30 31  1  0  0  0
 31 32  1  0  0  0
 31 36  1  0  0  0
 32 33  1  0  0  0
 33 34  2  0  0  0
 33 35  1  0  0  0
 35 56  1  0  0  0
 36 37  2  0  0  0
 36 38  1  0  0  0
 38 57  1  0  0  0
 39 40  1  0  0  0
 40 41  2  0  0  0
 40 42  1  0  0  0
 42 43  1  0  0  0
 43 44  1  0  0  0
 43 48  1  0  0  0
 44 45  1  0  0  0
 45 46  2  0  0  0
 45 47  1  0  0  0
 47 58  1  0  0  0
 48 49  2  0  0  0
 48 50  1  0  0  0
 50 59  1  0  0  0
M  END
>  <AUTHOR>
    GENERATED BY OPEN BABEL 2.4.1

>  <CHROM.1>
-80.01050144,178.71815708,85.69843847,-68.82763549,66.74456807,55.59480317
-141.70654437,-78.52648167,64.63490246,-63.82609261,-173.21822602,88.21447420
99.66727047,-110.92430565,-6.72866201,-178.99390013,73.08443099,-124.02177535
-75.00146796,-65.83044530,80.84977038,74.83045441,32.51542782,78.13708921
-60.22988473,-60.42527116,-71.09916782,-111.99081451,-5.12822000,-174.70191730
1.05387420,-16.42944462,168.57130338,77.82662320,-50.49628634,-60.09767880
90.87328618,1.38286954,0.51808057,0.07929759,1.05287953,3.56484488,1.51259419
0.05099932,0.24410884

>  <COMPND>
    UNNAMED

>  <MASTER>
        0    0    0    0    0    0    0    0  109    0  109    0

>  <Name>
FB1.pdb

>  <RI>
0

>  <Rbt.Current_Directory>
/home/fc/tossine/F10/p3/1_clust04

>  <Rbt.Executable>
rbdock/0.1.0

>  <Rbt.Library>
librxdock.so/0.1.0

>  <Rbt.Parameter_File>
/cluster/rxdock/data/scripts/dock.prm

>  <Rbt.Receptor>
rx_0.prm

>  <SCORE>
21.764

>  <SCORE.INTER>
-3.82182

>  <SCORE.INTER.CONST>
1

>  <SCORE.INTER.POLAR>
-2.71188

>  <SCORE.INTER.REPUL>
0.5691

>  <SCORE.INTER.ROT>
32

>  <SCORE.INTER.VDW>
-34.8469

>  <SCORE.INTER.norm>
-0.0764365

>  <SCORE.INTRA>
24.99

>  <SCORE.INTRA.DIHEDRAL>
31.4856

>  <SCORE.INTRA.DIHEDRAL.0>
47.3121

>  <SCORE.INTRA.POLAR>
1.47808

>  <SCORE.INTRA.POLAR.0>
-1.47808

>  <SCORE.INTRA.REPUL>
0

>  <SCORE.INTRA.REPUL.0>
0

>  <SCORE.INTRA.VDW>
4.22174

>  <SCORE.INTRA.VDW.0>
-2.78316

>  <SCORE.INTRA.norm>
0.4998

>  <SCORE.RESTR>
0.595873

>  <SCORE.RESTR.CAVITY>
0.595873

>  <SCORE.RESTR.norm>
0.0119175

>  <SCORE.SYSTEM>
0

>  <SCORE.SYSTEM.CONST>
0

>  <SCORE.SYSTEM.DIHEDRAL>
0

>  <SCORE.SYSTEM.norm>
0

>  <SCORE.heavy>
50

>  <SCORE.norm>
0.435281

$$$$
