FB1.pdb
  RxDock  10092019103D
librxdock.so/0.1.0
 59 58  0  0  0  0  0  0  0  0999 V2000
   -8.0847   -0.8324    4.3659 C   0  0  0  0  0  0
   -7.2203   -0.2422    5.4775 C   0  0  0  0  0  0
   -6.7871    1.1981    5.1581 C   0  0  0  0  0  0
   -5.2935    1.4754    5.4612 C   0  0  0  0  0  0
   -4.3122    1.1852    4.2724 C   0  0  0  0  0  0
   -4.0060    2.5219    3.5582 C   0  0  0  0  0  0
   -2.9730    0.4607    4.7191 C   0  0  0  0  0  0
   -2.3119   -0.5535    3.6700 C   0  0  0  0  0  0
   -1.6858   -1.9686    4.0355 C   0  0  0  0  0  0
   -1.5203   -3.0092    2.7661 C   0  0  0  0  0  0
   -0.8740   -2.2574    1.6037 C   0  0  0  0  0  0
   -0.7041   -4.3486    3.0567 C   0  0  0  0  0  0
   -1.3003   -5.6175    3.8648 C   0  0  0  0  0  0
   -1.1460   -7.0895    3.3494 C   0  0  0  0  0  0
    0.2601   -7.5344    2.7377 C   0  0  0  0  0  0
    0.4763   -8.8258    1.8545 C   0  0  0  0  0  0
   -0.0904  -10.1867    2.3384 C   0  0  0  0  0  0
   -1.5301  -10.5749    1.8229 C   0  0  0  0  0  0
   -2.6554   -9.5815    2.1384 C   0  0  0  0  0  0
   -3.4185   -8.9302    0.9502 C   0  0  0  0  0  0
   -4.9666   -9.0577    0.8389 C   0  0  0  0  0  0
   -5.5264  -10.4714    0.7649 C   0  0  0  0  0  0
   -5.6355   -8.2805    1.8996 N   0  0  0  0  0  0
   -3.1678   -7.5082    1.0877 O   0  0  0  0  0  0
   -1.4596  -10.7463    0.4032 O   0  0  0  0  0  0
   -0.6309   -5.5933    5.1368 O   0  0  0  0  0  0
   -3.3443   -0.8582    2.6934 O   0  0  0  0  0  0
   -4.3948   -1.6067    3.1195 C   0  0  0  0  0  0
   -5.1297   -1.3490    4.0537 O   0  0  0  0  0  0
   -4.5663   -2.7661    2.1772 C   0  0  0  0  0  0
   -5.4281   -3.8898    2.7747 C   0  0  0  0  0  0
   -6.6930   -4.1630    1.9508 C   0  0  0  0  0  0
   -7.6280   -2.9763    1.9779 C   0  0  0  0  0  0
   -7.3808   -1.9054    1.4340 O   0  0  0  0  0  0
   -8.7625   -3.2052    2.6557 O   0  0  0  0  0  0
   -4.5361   -5.1388    2.7973 C   0  0  0  0  0  0
   -3.5911   -5.2973    2.0395 O   0  0  0  0  0  0
   -4.9092   -6.0688    3.6872 O   0  0  0  0  0  0
   -1.9865    1.4356    5.2447 O   0  0  0  0  0  0
   -0.8721    0.9521    5.9098 C   0  0  0  0  0  0
   -0.8639   -0.0429    6.6227 O   0  0  0  0  0  0
    0.3761    1.8076    5.6560 C   0  0  0  0  0  0
    1.1738    1.4734    4.3574 C   0  0  0  0  0  0
    0.4706    1.6794    3.0033 C   0  0  0  0  0  0
    1.2691    1.1599    1.8427 C   0  0  0  0  0  0
    2.3178    1.6345    1.4287 O   0  0  0  0  0  0
    0.7170    0.0708    1.2865 O   0  0  0  0  0  0
    2.5477    2.1484    4.2615 C   0  0  0  0  0  0
    2.7344    3.1818    3.6500 O   0  0  0  0  0  0
    3.5266    1.5764    4.9935 O   0  0  0  0  0  0
   -4.9917   -7.5738    2.2525 H   0  0  0  0  0  0
   -5.8111   -8.8979    2.6956 H   0  0  0  0  0  0
   -3.5906   -7.1059    0.2997 H   0  0  0  0  0  0
   -1.0669   -9.9411    0.0187 H   0  0  0  0  0  0
   -0.6635   -4.6832    5.4764 H   0  0  0  0  0  0
   -8.8242   -4.0823    3.0805 H   0  0  0  0  0  0
   -5.6760   -5.8083    4.2555 H   0  0  0  0  0  0
    1.2881   -0.1787    0.5296 H   0  0  0  0  0  0
    4.3921    2.0419    4.9736 H   0  0  0  0  0  0
  1  2  1  0  0  0
  2  3  1  0  0  0
  3  4  1  0  0  0
  4  5  1  0  0  0
  5  6  1  0  0  0
  5  7  1  0  0  0
  7  8  1  0  0  0
  7 39  1  0  0  0
  8  9  1  0  0  0
  8 27  1  0  0  0
  9 10  1  0  0  0
 10 11  1  0  0  0
 10 12  1  0  0  0
 12 13  1  0  0  0
 13 14  1  0  0  0
 13 26  1  0  0  0
 14 15  1  0  0  0
 15 16  1  0  0  0
 16 17  1  0  0  0
 17 18  1  0  0  0
 18 19  1  0  0  0
 18 25  1  0  0  0
 19 20  1  0  0  0
 20 21  1  0  0  0
 20 24  1  0  0  0
 21 22  1  0  0  0
 21 23  1  0  0  0
 23 51  1  0  0  0
 23 52  1  0  0  0
 24 53  1  0  0  0
 25 54  1  0  0  0
 26 55  1  0  0  0
 27 28  1  0  0  0
 28 29  2  0  0  0
 28 30  1  0  0  0
 30 31  1  0  0  0
 31 32  1  0  0  0
 31 36  1  0  0  0
 32 33  1  0  0  0
 33 34  2  0  0  0
 33 35  1  0  0  0
 35 56  1  0  0  0
 36 37  2  0  0  0
 36 38  1  0  0  0
 38 57  1  0  0  0
 39 40  1  0  0  0
 40 41  2  0  0  0
 40 42  1  0  0  0
 42 43  1  0  0  0
 43 44  1  0  0  0
 43 48  1  0  0  0
 44 45  1  0  0  0
 45 46  2  0  0  0
 45 47  1  0  0  0
 47 58  1  0  0  0
 48 49  2  0  0  0
 48 50  1  0  0  0
 50 59  1  0  0  0
M  END
>  <AUTHOR>
    GENERATED BY OPEN BABEL 2.4.1

>  <CHROM.1>
-135.71664274,89.46782749,98.20444477,147.68840824,-138.10169165,167.88260753
161.07138564,-69.28008892,47.43835616,76.47853908,133.19991367,42.07914961
46.97835120,-163.67642692,-48.77982816,92.83915641,-57.23054273,119.13973269
-53.45047156,123.69219377,-58.97522018,175.73486294,20.59578221,56.17770760
162.82625879,119.54830260,-65.38647402,-25.01448471,68.63939384,2.93520821
-3.71327915,-34.77287014,-84.58122304,63.44899890,-172.58190998,-96.71448250
-68.83869035,178.43529067,-176.44747084,-2.62826366,-2.99143518,3.12640626
1.31649227,0.01849470,0.24142906

>  <COMPND>
    UNNAMED

>  <MASTER>
        0    0    0    0    0    0    0    0  109    0  109    0

>  <Name>
FB1.pdb

>  <RI>
0

>  <Rbt.Current_Directory>
/home/fc/tossine/F10/p3/1_clust04

>  <Rbt.Executable>
rbdock/0.1.0

>  <Rbt.Library>
librxdock.so/0.1.0

>  <Rbt.Parameter_File>
/cluster/rxdock/data/scripts/dock.prm

>  <Rbt.Receptor>
rx_1.prm

>  <SCORE>
47.2506

>  <SCORE.INTER>
22.4428

>  <SCORE.INTER.CONST>
1

>  <SCORE.INTER.POLAR>
-1.54897

>  <SCORE.INTER.REPUL>
0.403193

>  <SCORE.INTER.ROT>
32

>  <SCORE.INTER.VDW>
-11.7066

>  <SCORE.INTER.norm>
0.448857

>  <SCORE.INTRA>
24.2673

>  <SCORE.INTRA.DIHEDRAL>
45.6375

>  <SCORE.INTRA.DIHEDRAL.0>
47.3121

>  <SCORE.INTRA.POLAR>
0.668727

>  <SCORE.INTRA.POLAR.0>
-1.47808

>  <SCORE.INTRA.REPUL>
0

>  <SCORE.INTRA.REPUL.0>
0

>  <SCORE.INTRA.VDW>
-0.825162

>  <SCORE.INTRA.VDW.0>
-2.78316

>  <SCORE.INTRA.norm>
0.485346

>  <SCORE.RESTR>
0.540439

>  <SCORE.RESTR.CAVITY>
0.540439

>  <SCORE.RESTR.norm>
0.0108088

>  <SCORE.SYSTEM>
0

>  <SCORE.SYSTEM.CONST>
0

>  <SCORE.SYSTEM.DIHEDRAL>
0

>  <SCORE.SYSTEM.norm>
0

>  <SCORE.heavy>
50

>  <SCORE.norm>
0.945011

$$$$
