FB1.pdb
  RxDock  10092021043D
librxdock.so/0.1.0
 59 58  0  0  0  0  0  0  0  0999 V2000
    3.7022    0.3974    5.4244 C   0  0  0  0  0  0
    2.7032    0.3551    4.2705 C   0  0  0  0  0  0
    2.0111   -1.0140    4.1665 C   0  0  0  0  0  0
    1.2887   -1.2397    2.8148 C   0  0  0  0  0  0
    0.1902   -0.1757    2.4661 C   0  0  0  0  0  0
   -0.0891   -0.2463    0.9470 C   0  0  0  0  0  0
   -1.1493   -0.3524    3.2982 C   0  0  0  0  0  0
   -2.0855    0.9387    3.4491 C   0  0  0  0  0  0
   -3.2290    1.1174    4.5394 C   0  0  0  0  0  0
   -3.7538    2.6664    4.7552 C   0  0  0  0  0  0
   -3.9478    3.3085    3.3826 C   0  0  0  0  0  0
   -5.0813    2.8447    5.6217 C   0  0  0  0  0  0
   -5.4387    1.9583    6.9275 C   0  0  0  0  0  0
   -6.3679    0.6981    6.8588 C   0  0  0  0  0  0
   -6.7618   -0.0277    8.2252 C   0  0  0  0  0  0
   -7.6795   -1.3099    8.3179 C   0  0  0  0  0  0
   -8.3541   -1.6713    9.6676 C   0  0  0  0  0  0
   -9.4342   -2.8208    9.6310 C   0  0  0  0  0  0
  -10.4354   -2.7755    8.4699 C   0  0  0  0  0  0
  -11.6758   -3.7116    8.5290 C   0  0  0  0  0  0
  -12.6190   -3.6981    9.7681 C   0  0  0  0  0  0
  -11.9928   -4.0853   11.1005 C   0  0  0  0  0  0
  -13.3292   -2.4093    9.8740 N   0  0  0  0  0  0
  -12.5083   -3.2892    7.4189 O   0  0  0  0  0  0
   -8.7439   -4.0743    9.5877 O   0  0  0  0  0  0
   -4.1727    1.4658    7.3977 O   0  0  0  0  0  0
   -1.1933    2.0633    3.6759 O   0  0  0  0  0  0
   -0.2265    1.9038    4.6167 C   0  0  0  0  0  0
   -0.1364    0.9835    5.4068 O   0  0  0  0  0  0
    0.7817    3.0079    4.4552 C   0  0  0  0  0  0
    0.3109    4.3327    5.0763 C   0  0  0  0  0  0
    0.5923    4.4096    6.5823 C   0  0  0  0  0  0
    0.7055    3.0294    7.1869 C   0  0  0  0  0  0
   -0.1753    2.5116    7.8650 O   0  0  0  0  0  0
    1.8667    2.4181    6.9095 O   0  0  0  0  0  0
    1.0790    5.4397    4.3411 C   0  0  0  0  0  0
    2.2825    5.3934    4.1364 O   0  0  0  0  0  0
    0.3277    6.4901    3.9831 O   0  0  0  0  0  0
   -1.9116   -1.5394    2.8400 O   0  0  0  0  0  0
   -1.4546   -2.7959    3.2012 C   0  0  0  0  0  0
   -0.4226   -3.0090    3.8239 O   0  0  0  0  0  0
   -2.3932   -3.9155    2.7324 C   0  0  0  0  0  0
   -2.3368   -5.2374    3.5595 C   0  0  0  0  0  0
   -3.3800   -6.3275    3.2530 C   0  0  0  0  0  0
   -4.7002   -6.0814    3.9245 C   0  0  0  0  0  0
   -5.4085   -5.0965    3.7665 O   0  0  0  0  0  0
   -5.0597   -7.0890    4.7343 O   0  0  0  0  0  0
   -0.9628   -5.9184    3.5804 C   0  0  0  0  0  0
   -0.1210   -5.7332    2.7237 O   0  0  0  0  0  0
   -0.7013   -6.6621    4.6757 O   0  0  0  0  0  0
  -12.6462   -1.6550    9.9285 H   0  0  0  0  0  0
  -13.8242   -2.3816   10.7682 H   0  0  0  0  0  0
  -12.7240   -2.3529    7.6145 H   0  0  0  0  0  0
   -8.2058   -4.1533   10.3969 H   0  0  0  0  0  0
   -3.9007    0.7342    6.8186 H   0  0  0  0  0  0
    1.9763    1.5325    7.3060 H   0  0  0  0  0  0
   -0.6002    6.4663    4.3255 H   0  0  0  0  0  0
   -5.8595   -6.7906    5.2166 H   0  0  0  0  0  0
   -1.4043   -6.6589    5.3628 H   0  0  0  0  0  0
  1  2  1  0  0  0
  2  3  1  0  0  0
  3  4  1  0  0  0
  4  5  1  0  0  0
  5  6  1  0  0  0
  5  7  1  0  0  0
  7  8  1  0  0  0
  7 39  1  0  0  0
  8  9  1  0  0  0
  8 27  1  0  0  0
  9 10  1  0  0  0
 10 11  1  0  0  0
 10 12  1  0  0  0
 12 13  1  0  0  0
 13 14  1  0  0  0
 13 26  1  0  0  0
 14 15  1  0  0  0
 15 16  1  0  0  0
 16 17  1  0  0  0
 17 18  1  0  0  0
 18 19  1  0  0  0
 18 25  1  0  0  0
 19 20  1  0  0  0
 20 21  1  0  0  0
 20 24  1  0  0  0
 21 22  1  0  0  0
 21 23  1  0  0  0
 23 51  1  0  0  0
 23 52  1  0  0  0
 24 53  1  0  0  0
 25 54  1  0  0  0
 26 55  1  0  0  0
 27 28  1  0  0  0
 28 29  2  0  0  0
 28 30  1  0  0  0
 30 31  1  0  0  0
 31 32  1  0  0  0
 31 36  1  0  0  0
 32 33  1  0  0  0
 33 34  2  0  0  0
 33 35  1  0  0  0
 35 56  1  0  0  0
 36 37  2  0  0  0
 36 38  1  0  0  0
 38 57  1  0  0  0
 39 40  1  0  0  0
 40 41  2  0  0  0
 40 42  1  0  0  0
 42 43  1  0  0  0
 43 44  1  0  0  0
 43 48  1  0  0  0
 44 45  1  0  0  0
 45 46  2  0  0  0
 45 47  1  0  0  0
 47 58  1  0  0  0
 48 49  2  0  0  0
 48 50  1  0  0  0
 50 59  1  0  0  0
M  END
>  <AUTHOR>
    GENERATED BY OPEN BABEL 2.4.1

>  <CHROM.1>
-164.50575771,-57.89960769,161.36133534,157.32453192,-162.01217920,74.97934041
163.73178191,-48.00918426,44.54093534,37.98899019,-96.49023514,-174.59162823
-76.80269942,-179.59914815,-161.05479177,170.42045264,-43.71002400,-168.56559933
61.27307884,53.81678895,-61.50633116,-60.89144255,-57.54501187,-10.08863311
79.41224699,83.73888866,-23.97316057,-46.73099530,-104.18160588,178.57166218
6.55410817,-3.67006969,-154.76281085,172.24727837,-81.71787461,-22.83698168
59.46523020,172.41839063,-2.44678497,-3.25280174,-0.71451431,5.50755531,-0.31382366
-0.46786472,-2.85590431

>  <COMPND>
    UNNAMED

>  <MASTER>
        0    0    0    0    0    0    0    0  109    0  109    0

>  <Name>
FB1.pdb

>  <RI>
0

>  <Rbt.Current_Directory>
/home/fc/tossine/F10/p3/1_clust04

>  <Rbt.Executable>
rbdock/0.1.0

>  <Rbt.Library>
librxdock.so/0.1.0

>  <Rbt.Parameter_File>
/cluster/rxdock/data/scripts/dock.prm

>  <Rbt.Receptor>
rx_3.prm

>  <SCORE>
9.12872

>  <SCORE.INTER>
-3.01361

>  <SCORE.INTER.CONST>
1

>  <SCORE.INTER.POLAR>
-3.78121

>  <SCORE.INTER.REPUL>
0.725795

>  <SCORE.INTER.ROT>
32

>  <SCORE.INTER.VDW>
-31.1865

>  <SCORE.INTER.norm>
-0.0602722

>  <SCORE.INTRA>
5.70687

>  <SCORE.INTRA.DIHEDRAL>
-4.57852

>  <SCORE.INTRA.DIHEDRAL.0>
47.3121

>  <SCORE.INTRA.POLAR>
1.44416

>  <SCORE.INTRA.POLAR.0>
-1.47808

>  <SCORE.INTRA.REPUL>
0.112966

>  <SCORE.INTRA.REPUL.0>
0

>  <SCORE.INTRA.VDW>
2.52117

>  <SCORE.INTRA.VDW.0>
-2.78316

>  <SCORE.INTRA.norm>
0.114137

>  <SCORE.RESTR>
6.43545

>  <SCORE.RESTR.CAVITY>
6.43545

>  <SCORE.RESTR.norm>
0.128709

>  <SCORE.SYSTEM>
0

>  <SCORE.SYSTEM.CONST>
0

>  <SCORE.SYSTEM.DIHEDRAL>
0

>  <SCORE.SYSTEM.norm>
0

>  <SCORE.heavy>
50

>  <SCORE.norm>
0.182574

$$$$
