FB1.pdb
  RxDock  10092018083D
librxdock.so/0.1.0
 59 58  0  0  0  0  0  0  0  0999 V2000
   -4.4946    6.3650    8.5538 C   0  0  0  0  0  0
   -3.0199    6.6487    8.2781 C   0  0  0  0  0  0
   -2.1548    6.4337    9.5309 C   0  0  0  0  0  0
   -0.6584    6.7703    9.3134 C   0  0  0  0  0  0
    0.0326    5.9866    8.1434 C   0  0  0  0  0  0
    1.4698    6.5317    7.9763 C   0  0  0  0  0  0
    0.0431    4.4139    8.3540 C   0  0  0  0  0  0
    0.2104    3.5074    7.0439 C   0  0  0  0  0  0
    0.9026    2.0766    7.0035 C   0  0  0  0  0  0
    1.7398    1.7433    5.6217 C   0  0  0  0  0  0
    3.2342    1.7986    5.9347 C   0  0  0  0  0  0
    1.3940    0.3600    4.9064 C   0  0  0  0  0  0
    0.0332    0.0832    4.0755 C   0  0  0  0  0  0
   -0.1316   -1.1473    3.1191 C   0  0  0  0  0  0
   -1.4859   -1.2817    2.2843 C   0  0  0  0  0  0
   -1.7020   -2.3038    1.0997 C   0  0  0  0  0  0
   -1.6469   -3.8279    1.3853 C   0  0  0  0  0  0
   -3.0151   -4.5294    1.7389 C   0  0  0  0  0  0
   -2.9229   -5.9520    2.3047 C   0  0  0  0  0  0
   -1.9917   -6.2013    3.5249 C   0  0  0  0  0  0
   -0.4438   -6.1930    3.3539 C   0  0  0  0  0  0
    0.1081   -6.9333    2.1437 C   0  0  0  0  0  0
    0.0845   -4.8170    3.4163 N   0  0  0  0  0  0
   -2.2750   -5.1065    4.4332 O   0  0  0  0  0  0
   -3.7012   -3.7061    2.6881 O   0  0  0  0  0  0
   -0.9845   -0.0812    5.0773 O   0  0  0  0  0  0
   -1.1318    3.2722    6.5384 O   0  0  0  0  0  0
   -1.5720    4.0945    5.5508 C   0  0  0  0  0  0
   -1.1298    5.1949    5.2805 O   0  0  0  0  0  0
   -2.6391    3.3752    4.7727 C   0  0  0  0  0  0
   -3.7250    4.3252    4.2429 C   0  0  0  0  0  0
   -4.4603    3.7564    3.0225 C   0  0  0  0  0  0
   -5.3340    4.8054    2.3748 C   0  0  0  0  0  0
   -4.8954    5.8209    1.8455 O   0  0  0  0  0  0
   -6.6432    4.5196    2.4313 O   0  0  0  0  0  0
   -4.7103    4.5281    5.4022 C   0  0  0  0  0  0
   -5.0645    3.6232    6.1425 O   0  0  0  0  0  0
   -5.1915    5.7744    5.5073 O   0  0  0  0  0  0
    0.9936    4.0232    9.4235 O   0  0  0  0  0  0
    0.6026    4.1811   10.7427 C   0  0  0  0  0  0
   -0.3801    4.8136   11.1068 O   0  0  0  0  0  0
    1.5455    3.4675   11.7204 C   0  0  0  0  0  0
    1.9815    2.0263   11.3112 C   0  0  0  0  0  0
    3.2158    1.4200   12.0036 C   0  0  0  0  0  0
    4.4468    2.2667   11.8550 C   0  0  0  0  0  0
    4.4838    3.4882   11.9124 O   0  0  0  0  0  0
    5.5541    1.5334   11.6641 O   0  0  0  0  0  0
    0.8636    0.9785   11.3791 C   0  0  0  0  0  0
    0.7279    0.2177   12.3169 O   0  0  0  0  0  0
   -0.0344    1.0233   10.3727 O   0  0  0  0  0  0
    1.0542   -4.8168    3.1030 H   0  0  0  0  0  0
    0.1241   -4.5264    4.3959 H   0  0  0  0  0  0
   -3.0541   -5.4073    4.9467 H   0  0  0  0  0  0
   -3.2691   -3.8165    3.5551 H   0  0  0  0  0  0
   -1.8428   -0.1471    4.6261 H   0  0  0  0  0  0
   -7.2265    5.1429    1.9573 H   0  0  0  0  0  0
   -5.8318    5.9054    6.2500 H   0  0  0  0  0  0
    5.2639    0.5998   11.5899 H   0  0  0  0  0  0
   -0.5645    0.2052   10.2466 H   0  0  0  0  0  0
  1  2  1  0  0  0
  2  3  1  0  0  0
  3  4  1  0  0  0
  4  5  1  0  0  0
  5  6  1  0  0  0
  5  7  1  0  0  0
  7  8  1  0  0  0
  7 39  1  0  0  0
  8  9  1  0  0  0
  8 27  1  0  0  0
  9 10  1  0  0  0
 10 11  1  0  0  0
 10 12  1  0  0  0
 12 13  1  0  0  0
 13 14  1  0  0  0
 13 26  1  0  0  0
 14 15  1  0  0  0
 15 16  1  0  0  0
 16 17  1  0  0  0
 17 18  1  0  0  0
 18 19  1  0  0  0
 18 25  1  0  0  0
 19 20  1  0  0  0
 20 21  1  0  0  0
 20 24  1  0  0  0
 21 22  1  0  0  0
 21 23  1  0  0  0
 23 51  1  0  0  0
 23 52  1  0  0  0
 24 53  1  0  0  0
 25 54  1  0  0  0
 26 55  1  0  0  0
 27 28  1  0  0  0
 28 29  2  0  0  0
 28 30  1  0  0  0
 30 31  1  0  0  0
 31 32  1  0  0  0
 31 36  1  0  0  0
 32 33  1  0  0  0
 33 34  2  0  0  0
 33 35  1  0  0  0
 35 56  1  0  0  0
 36 37  2  0  0  0
 36 38  1  0  0  0
 38 57  1  0  0  0
 39 40  1  0  0  0
 40 41  2  0  0  0
 40 42  1  0  0  0
 42 43  1  0  0  0
 43 44  1  0  0  0
 43 48  1  0  0  0
 44 45  1  0  0  0
 45 46  2  0  0  0
 45 47  1  0  0  0
 47 58  1  0  0  0
 48 49  2  0  0  0
 48 50  1  0  0  0
 50 59  1  0  0  0
M  END
>  <AUTHOR>
    GENERATED BY OPEN BABEL 2.4.1

>  <CHROM.1>
-177.47047493,-56.56704348,174.74591107,158.00531067,149.89272948,78.73479183
-145.22356416,96.11866591,107.16390377,73.64051616,165.50583643,-176.62665833
173.48256649,168.55877705,63.50144583,91.31880449,-167.54403555,52.35074116
-75.19579394,-72.61056099,-43.98463868,85.13113385,-167.78213199,-20.37469454
146.71631424,156.45834195,-169.52755316,-40.57377312,64.48580337,-175.23044105
179.57814338,-12.25402604,-44.00646303,162.49499894,-56.42694049,-98.94560990
39.64785664,4.89028032,161.10983971,-0.90417443,1.64610501,6.40707575,1.22665212
-0.78047714,0.50459214

>  <COMPND>
    UNNAMED

>  <MASTER>
        0    0    0    0    0    0    0    0  109    0  109    0

>  <Name>
FB1.pdb

>  <RI>
0

>  <Rbt.Current_Directory>
/home/fc/tossine/F10/p3/1_clust04

>  <Rbt.Executable>
rbdock/0.1.0

>  <Rbt.Library>
librxdock.so/0.1.0

>  <Rbt.Parameter_File>
/cluster/rxdock/data/scripts/dock.prm

>  <Rbt.Receptor>
rx_0.prm

>  <SCORE>
19.2236

>  <SCORE.INTER>
12.0745

>  <SCORE.INTER.CONST>
1

>  <SCORE.INTER.POLAR>
-0.794969

>  <SCORE.INTER.REPUL>
0.241631

>  <SCORE.INTER.ROT>
32

>  <SCORE.INTER.VDW>
-23.8307

>  <SCORE.INTER.norm>
0.24149

>  <SCORE.INTRA>
6.43997

>  <SCORE.INTRA.DIHEDRAL>
10.8356

>  <SCORE.INTRA.DIHEDRAL.0>
47.3121

>  <SCORE.INTRA.POLAR>
0.91697

>  <SCORE.INTRA.POLAR.0>
-1.47808

>  <SCORE.INTRA.REPUL>
0

>  <SCORE.INTRA.REPUL.0>
0

>  <SCORE.INTRA.VDW>
-2.09552

>  <SCORE.INTRA.VDW.0>
-2.78316

>  <SCORE.INTRA.norm>
0.128799

>  <SCORE.RESTR>
0.709159

>  <SCORE.RESTR.CAVITY>
0.709159

>  <SCORE.RESTR.norm>
0.0141832

>  <SCORE.SYSTEM>
0

>  <SCORE.SYSTEM.CONST>
0

>  <SCORE.SYSTEM.DIHEDRAL>
0

>  <SCORE.SYSTEM.norm>
0

>  <SCORE.heavy>
50

>  <SCORE.norm>
0.384473

$$$$
