FB1.pdb
  RxDock  10092020143D
librxdock.so/0.1.0
 59 58  0  0  0  0  0  0  0  0999 V2000
   -5.4831    1.4060    6.6393 C   0  0  0  0  0  0
   -4.5756    2.1760    5.6828 C   0  0  0  0  0  0
   -3.5316    3.0141    6.4390 C   0  0  0  0  0  0
   -4.0748    4.3784    6.9326 C   0  0  0  0  0  0
   -2.9779    5.4617    7.2217 C   0  0  0  0  0  0
   -3.4736    6.3574    8.3804 C   0  0  0  0  0  0
   -1.5520    4.8474    7.5494 C   0  0  0  0  0  0
   -0.6308    4.4459    6.3018 C   0  0  0  0  0  0
   -0.9127    3.2375    5.3076 C   0  0  0  0  0  0
    0.4330    2.5307    4.6665 C   0  0  0  0  0  0
    1.1084    1.6976    5.7546 C   0  0  0  0  0  0
    0.2044    1.6314    3.3689 C   0  0  0  0  0  0
   -1.1944    0.9045    3.0033 C   0  0  0  0  0  0
   -1.9739    0.0164    4.0328 C   0  0  0  0  0  0
   -1.5058   -1.4966    4.2350 C   0  0  0  0  0  0
   -1.3488   -2.5425    3.0620 C   0  0  0  0  0  0
   -2.4725   -2.6753    2.0004 C   0  0  0  0  0  0
   -2.1797   -3.6295    0.7786 C   0  0  0  0  0  0
   -2.2331   -5.1354    1.0647 C   0  0  0  0  0  0
   -1.0282   -5.7897    1.7984 C   0  0  0  0  0  0
   -0.5718   -7.2345    1.4379 C   0  0  0  0  0  0
   -1.5765   -8.3476    1.7003 C   0  0  0  0  0  0
   -0.0665   -7.2958    0.0533 N   0  0  0  0  0  0
    0.1046   -4.9453    1.4704 O   0  0  0  0  0  0
   -3.1255   -3.3288   -0.2533 O   0  0  0  0  0  0
   -2.0939    1.9772    2.6764 O   0  0  0  0  0  0
   -0.5801    5.6158    5.4410 O   0  0  0  0  0  0
    0.3686    6.5470    5.7208 C   0  0  0  0  0  0
    1.3737    6.3734    6.3834 O   0  0  0  0  0  0
    0.0232    7.8137    4.9875 C   0  0  0  0  0  0
    1.0655    8.1801    3.9190 C   0  0  0  0  0  0
    0.4316    8.7969    2.6655 C   0  0  0  0  0  0
    0.1924   10.2777    2.8480 C   0  0  0  0  0  0
    0.9441   11.1446    2.4153 O   0  0  0  0  0  0
   -0.9275   10.5579    3.5306 O   0  0  0  0  0  0
    2.0110    9.1916    4.5814 C   0  0  0  0  0  0
    3.2270    9.0757    4.5682 O   0  0  0  0  0  0
    1.3901   10.1920    5.2215 O   0  0  0  0  0  0
   -0.8211    5.6848    8.5314 O   0  0  0  0  0  0
    0.3085    5.1580    9.1352 C   0  0  0  0  0  0
    1.2741    5.8159    9.5000 O   0  0  0  0  0  0
    0.2239    3.6353    9.3042 C   0  0  0  0  0  0
    0.7904    3.0698   10.6435 C   0  0  0  0  0  0
    0.2242    1.7354   11.1623 C   0  0  0  0  0  0
    0.6333    1.4343   12.5752 C   0  0  0  0  0  0
    0.7932    0.3180   13.0493 O   0  0  0  0  0  0
    0.8352    2.5460   13.2990 O   0  0  0  0  0  0
    2.3196    2.9633   10.6945 C   0  0  0  0  0  0
    2.9232    1.9627   10.3610 O   0  0  0  0  0  0
    2.9683    4.0966   11.0351 O   0  0  0  0  0  0
   -0.8362   -7.5267   -0.5734 H   0  0  0  0  0  0
    0.5811   -8.0834   -0.0235 H   0  0  0  0  0  0
    0.3226   -5.1746    0.5423 H   0  0  0  0  0  0
   -4.0127   -3.5775    0.0654 H   0  0  0  0  0  0
   -1.9625    2.2053    1.7409 H   0  0  0  0  0  0
   -1.5014    9.7915    3.7223 H   0  0  0  0  0  0
    0.4023   10.1498    5.1877 H   0  0  0  0  0  0
    1.0417    2.2537   14.2118 H   0  0  0  0  0  0
    3.9481    4.0257   11.0678 H   0  0  0  0  0  0
  1  2  1  0  0  0
  2  3  1  0  0  0
  3  4  1  0  0  0
  4  5  1  0  0  0
  5  6  1  0  0  0
  5  7  1  0  0  0
  7  8  1  0  0  0
  7 39  1  0  0  0
  8  9  1  0  0  0
  8 27  1  0  0  0
  9 10  1  0  0  0
 10 11  1  0  0  0
 10 12  1  0  0  0
 12 13  1  0  0  0
 13 14  1  0  0  0
 13 26  1  0  0  0
 14 15  1  0  0  0
 15 16  1  0  0  0
 16 17  1  0  0  0
 17 18  1  0  0  0
 18 19  1  0  0  0
 18 25  1  0  0  0
 19 20  1  0  0  0
 20 21  1  0  0  0
 20 24  1  0  0  0
 21 22  1  0  0  0
 21 23  1  0  0  0
 23 51  1  0  0  0
 23 52  1  0  0  0
 24 53  1  0  0  0
 25 54  1  0  0  0
 26 55  1  0  0  0
 27 28  1  0  0  0
 28 29  2  0  0  0
 28 30  1  0  0  0
 30 31  1  0  0  0
 31 32  1  0  0  0
 31 36  1  0  0  0
 32 33  1  0  0  0
 33 34  2  0  0  0
 33 35  1  0  0  0
 35 56  1  0  0  0
 36 37  2  0  0  0
 36 38  1  0  0  0
 38 57  1  0  0  0
 39 40  1  0  0  0
 40 41  2  0  0  0
 40 42  1  0  0  0
 42 43  1  0  0  0
 43 44  1  0  0  0
 43 48  1  0  0  0
 44 45  1  0  0  0
 45 46  2  0  0  0
 45 47  1  0  0  0
 47 58  1  0  0  0
 48 49  2  0  0  0
 48 50  1  0  0  0
 50 59  1  0  0  0
M  END
>  <AUTHOR>
    GENERATED BY OPEN BABEL 2.4.1

>  <CHROM.1>
-82.47770163,-158.52012811,-147.85612141,83.30679381,-69.53602418,166.76242670
-149.03749093,86.13879395,73.49624868,-25.26719523,-50.53016142,-81.43379829
84.73369666,-53.88827103,-46.49696262,173.81572745,74.33739348,-77.03222995
-66.24835872,-144.39006389,-63.13434318,-75.16881650,-90.93807694,19.46949989
-115.14807821,143.41128325,83.59646632,129.26781163,98.86292363,-7.49900348
0.15715937,148.81606575,-140.52433460,153.79836153,-168.33753908,-91.29488881
-149.69669055,176.57334869,179.96007115,-0.47941475,2.67451057,5.65087958
-2.48478100,-1.37307699,-0.51083067

>  <COMPND>
    UNNAMED

>  <MASTER>
        0    0    0    0    0    0    0    0  109    0  109    0

>  <Name>
FB1.pdb

>  <RI>
0

>  <Rbt.Current_Directory>
/home/fc/tossine/F10/p3/1_clust04

>  <Rbt.Executable>
rbdock/0.1.0

>  <Rbt.Library>
librxdock.so/0.1.0

>  <Rbt.Parameter_File>
/cluster/rxdock/data/scripts/dock.prm

>  <Rbt.Receptor>
rx_2.prm

>  <SCORE>
18.7581

>  <SCORE.INTER>
2.40569

>  <SCORE.INTER.CONST>
1

>  <SCORE.INTER.POLAR>
-2.83257

>  <SCORE.INTER.REPUL>
0.324791

>  <SCORE.INTER.ROT>
32

>  <SCORE.INTER.VDW>
-26.9875

>  <SCORE.INTER.norm>
0.0481138

>  <SCORE.INTRA>
15.9931

>  <SCORE.INTRA.DIHEDRAL>
17.3325

>  <SCORE.INTRA.DIHEDRAL.0>
47.3121

>  <SCORE.INTRA.POLAR>
1.18054

>  <SCORE.INTRA.POLAR.0>
-1.47808

>  <SCORE.INTRA.REPUL>
0

>  <SCORE.INTRA.REPUL.0>
0

>  <SCORE.INTRA.VDW>
3.31296

>  <SCORE.INTRA.VDW.0>
-2.78316

>  <SCORE.INTRA.norm>
0.319861

>  <SCORE.RESTR>
0.359361

>  <SCORE.RESTR.CAVITY>
0.359361

>  <SCORE.RESTR.norm>
0.00718722

>  <SCORE.SYSTEM>
0

>  <SCORE.SYSTEM.CONST>
0

>  <SCORE.SYSTEM.DIHEDRAL>
0

>  <SCORE.SYSTEM.norm>
0

>  <SCORE.heavy>
50

>  <SCORE.norm>
0.375162

$$$$
