FB1.pdb
  RxDock  10092021133D
librxdock.so/0.1.0
 59 58  0  0  0  0  0  0  0  0999 V2000
   -3.0003   -9.4763    0.5838 C   0  0  0  0  0  0
   -2.4070   -8.5620   -0.4855 C   0  0  0  0  0  0
   -1.5270   -7.4618    0.1305 C   0  0  0  0  0  0
   -2.2447   -6.0948    0.2558 C   0  0  0  0  0  0
   -1.3149   -4.8925    0.6437 C   0  0  0  0  0  0
   -1.6547   -3.6988   -0.2783 C   0  0  0  0  0  0
   -1.4208   -4.4775    2.1716 C   0  0  0  0  0  0
   -2.6760   -3.5760    2.5934 C   0  0  0  0  0  0
   -3.9804   -4.1104    3.3290 C   0  0  0  0  0  0
   -5.1670   -4.6711    2.3295 C   0  0  0  0  0  0
   -5.3119   -6.1766    2.5455 C   0  0  0  0  0  0
   -6.5935   -3.9710    2.4698 C   0  0  0  0  0  0
   -6.8845   -2.4222    2.1018 C   0  0  0  0  0  0
   -8.3257   -1.8878    1.7964 C   0  0  0  0  0  0
   -8.8828   -0.6713    2.6677 C   0  0  0  0  0  0
   -8.9146   -0.6504    4.2466 C   0  0  0  0  0  0
  -10.2798   -0.6433    4.9839 C   0  0  0  0  0  0
  -10.8296   -2.0419    5.4642 C   0  0  0  0  0  0
  -12.0686   -2.0109    6.3677 C   0  0  0  0  0  0
  -12.3893   -3.2696    7.2228 C   0  0  0  0  0  0
  -11.3976   -3.7534    8.3218 C   0  0  0  0  0  0
  -11.8836   -4.8781    9.2253 C   0  0  0  0  0  0
  -10.0826   -4.0777    7.7370 N   0  0  0  0  0  0
  -13.6046   -2.9287    7.9374 O   0  0  0  0  0  0
  -11.1340   -2.8198    4.3014 O   0  0  0  0  0  0
   -6.4451   -1.6803    3.2521 O   0  0  0  0  0  0
   -2.1581   -2.5480    3.4808 O   0  0  0  0  0  0
   -1.5853   -1.4623    2.8992 C   0  0  0  0  0  0
   -0.9475   -1.4536    1.8635 O   0  0  0  0  0  0
   -1.9564   -0.2432    3.6976 C   0  0  0  0  0  0
   -0.7880    0.7447    3.8440 C   0  0  0  0  0  0
   -1.2545    2.1559    4.2239 C   0  0  0  0  0  0
   -0.1274    2.9571    4.8330 C   0  0  0  0  0  0
    0.0220    3.1080    6.0408 O   0  0  0  0  0  0
    0.7015    3.4904    3.9234 O   0  0  0  0  0  0
    0.1114    0.1736    4.9490 C   0  0  0  0  0  0
    1.2229   -0.2853    4.7335 O   0  0  0  0  0  0
   -0.4434    0.1737    6.1689 O   0  0  0  0  0  0
   -1.2613   -5.6554    3.0587 O   0  0  0  0  0  0
   -0.0460   -6.3196    3.0601 C   0  0  0  0  0  0
    1.0461   -5.7732    3.1431 O   0  0  0  0  0  0
   -0.2120   -7.8407    2.9454 C   0  0  0  0  0  0
   -1.1722   -8.4977    3.9851 C   0  0  0  0  0  0
   -2.6076   -7.9511    4.0903 C   0  0  0  0  0  0
   -2.7279   -6.7983    5.0449 C   0  0  0  0  0  0
   -1.8376   -6.0070    5.3237 O   0  0  0  0  0  0
   -3.9565   -6.6966    5.5744 O   0  0  0  0  0  0
   -1.2753  -10.0244    3.8820 C   0  0  0  0  0  0
   -1.0509  -10.6335    2.8547 O   0  0  0  0  0  0
   -1.5297  -10.6675    5.0409 O   0  0  0  0  0  0
   -9.6663   -3.2278    7.3589 H   0  0  0  0  0  0
  -10.2261   -4.6839    6.9262 H   0  0  0  0  0  0
  -13.3650   -2.1408    8.4696 H   0  0  0  0  0  0
  -10.2969   -3.0287    3.8475 H   0  0  0  0  0  0
   -5.4950   -1.8458    3.3717 H   0  0  0  0  0  0
    1.4466    4.0044    4.2895 H   0  0  0  0  0  0
   -1.3693    0.5210    6.1982 H   0  0  0  0  0  0
   -4.5430   -7.2694    5.0365 H   0  0  0  0  0  0
   -1.4852  -10.1096    5.8490 H   0  0  0  0  0  0
  1  2  1  0  0  0
  2  3  1  0  0  0
  3  4  1  0  0  0
  4  5  1  0  0  0
  5  6  1  0  0  0
  5  7  1  0  0  0
  7  8  1  0  0  0
  7 39  1  0  0  0
  8  9  1  0  0  0
  8 27  1  0  0  0
  9 10  1  0  0  0
 10 11  1  0  0  0
 10 12  1  0  0  0
 12 13  1  0  0  0
 13 14  1  0  0  0
 13 26  1  0  0  0
 14 15  1  0  0  0
 15 16  1  0  0  0
 16 17  1  0  0  0
 17 18  1  0  0  0
 18 19  1  0  0  0
 18 25  1  0  0  0
 19 20  1  0  0  0
 20 21  1  0  0  0
 20 24  1  0  0  0
 21 22  1  0  0  0
 21 23  1  0  0  0
 23 51  1  0  0  0
 23 52  1  0  0  0
 24 53  1  0  0  0
 25 54  1  0  0  0
 26 55  1  0  0  0
 27 28  1  0  0  0
 28 29  2  0  0  0
 28 30  1  0  0  0
 30 31  1  0  0  0
 31 32  1  0  0  0
 31 36  1  0  0  0
 32 33  1  0  0  0
 33 34  2  0  0  0
 33 35  1  0  0  0
 35 56  1  0  0  0
 36 37  2  0  0  0
 36 38  1  0  0  0
 38 57  1  0  0  0
 39 40  1  0  0  0
 40 41  2  0  0  0
 40 42  1  0  0  0
 42 43  1  0  0  0
 43 44  1  0  0  0
 43 48  1  0  0  0
 44 45  1  0  0  0
 45 46  2  0  0  0
 45 47  1  0  0  0
 47 58  1  0  0  0
 48 49  2  0  0  0
 48 50  1  0  0  0
 50 59  1  0  0  0
M  END
>  <AUTHOR>
    GENERATED BY OPEN BABEL 2.4.1

>  <CHROM.1>
-99.74130510,-169.88171407,134.41521928,-79.51282287,102.00102933,64.36684631
-87.58472551,81.91158505,113.30434841,65.73390732,159.40560500,123.81157918
60.94424814,-52.92593864,-113.99915396,95.84290587,171.31473575,-161.09063151
67.40246857,62.85920949,172.13226835,-60.14309510,64.67928506,-33.86373282
140.10291902,160.73285760,159.69408889,110.58859480,-98.91869929,-179.24554066
1.42986572,47.49500188,-52.89795739,54.64375046,-87.61110679,-25.02718129
27.84785061,-13.92896848,-9.02567155,-4.09793968,-3.73172767,3.85100114,0.27584953
-0.26869356,-2.97341379

>  <COMPND>
    UNNAMED

>  <MASTER>
        0    0    0    0    0    0    0    0  109    0  109    0

>  <Name>
FB1.pdb

>  <RI>
0

>  <Rbt.Current_Directory>
/home/fc/tossine/F10/p3/1_clust04

>  <Rbt.Executable>
rbdock/0.1.0

>  <Rbt.Library>
librxdock.so/0.1.0

>  <Rbt.Parameter_File>
/cluster/rxdock/data/scripts/dock.prm

>  <Rbt.Receptor>
rx_3.prm

>  <SCORE>
41.7785

>  <SCORE.INTER>
19.7133

>  <SCORE.INTER.CONST>
1

>  <SCORE.INTER.POLAR>
-1.56035

>  <SCORE.INTER.REPUL>
0.109522

>  <SCORE.INTER.ROT>
32

>  <SCORE.INTER.VDW>
-12.9291

>  <SCORE.INTER.norm>
0.394266

>  <SCORE.INTRA>
21.3852

>  <SCORE.INTRA.DIHEDRAL>
38.5693

>  <SCORE.INTRA.DIHEDRAL.0>
47.3121

>  <SCORE.INTRA.POLAR>
1.47808

>  <SCORE.INTRA.POLAR.0>
-1.47808

>  <SCORE.INTRA.REPUL>
0

>  <SCORE.INTRA.REPUL.0>
0

>  <SCORE.INTRA.VDW>
-2.92491

>  <SCORE.INTRA.VDW.0>
-2.78316

>  <SCORE.INTRA.norm>
0.427704

>  <SCORE.RESTR>
0.679964

>  <SCORE.RESTR.CAVITY>
0.679964

>  <SCORE.RESTR.norm>
0.0135993

>  <SCORE.SYSTEM>
0

>  <SCORE.SYSTEM.CONST>
0

>  <SCORE.SYSTEM.DIHEDRAL>
0

>  <SCORE.SYSTEM.norm>
0

>  <SCORE.heavy>
50

>  <SCORE.norm>
0.83557

$$$$
