FB1.pdb
  RxDock  10092020153D
librxdock.so/0.1.0
 59 58  0  0  0  0  0  0  0  0999 V2000
    5.7899    0.8083    4.0197 C   0  0  0  0  0  0
    4.5034    1.6230    3.9079 C   0  0  0  0  0  0
    3.3293    0.9343    4.6230 C   0  0  0  0  0  0
    3.5323    0.7979    6.1527 C   0  0  0  0  0  0
    3.0680    2.0372    6.9948 C   0  0  0  0  0  0
    3.7702    3.2955    6.4344 C   0  0  0  0  0  0
    1.4933    2.2306    7.0215 C   0  0  0  0  0  0
    0.9294    3.4786    7.8525 C   0  0  0  0  0  0
    1.6324    4.1238    9.1244 C   0  0  0  0  0  0
    1.6385    3.1774   10.4756 C   0  0  0  0  0  0
    2.3567    3.9320   11.5931 C   0  0  0  0  0  0
    0.2132    2.6830   10.9941 C   0  0  0  0  0  0
   -0.1049    2.2815   12.5291 C   0  0  0  0  0  0
    0.9347    1.5376   13.4357 C   0  0  0  0  0  0
    1.4733    0.1125   12.9578 C   0  0  0  0  0  0
    2.2904   -0.8814   13.8738 C   0  0  0  0  0  0
    1.8705   -1.0770   15.3546 C   0  0  0  0  0  0
    0.3621   -1.4586   15.6157 C   0  0  0  0  0  0
   -0.2942   -2.3814   14.5812 C   0  0  0  0  0  0
   -1.7476   -2.8679   14.8439 C   0  0  0  0  0  0
   -2.3641   -4.0162   13.9915 C   0  0  0  0  0  0
   -3.0594   -3.6042   12.7014 C   0  0  0  0  0  0
   -1.3689   -5.0756   13.7389 N   0  0  0  0  0  0
   -1.7247   -3.3786   16.2013 O   0  0  0  0  0  0
    0.2810   -2.0854   16.9004 O   0  0  0  0  0  0
   -0.3556    3.5314   13.1936 O   0  0  0  0  0  0
    0.8155    4.5776    6.9082 O   0  0  0  0  0  0
   -0.4365    4.9179    6.5058 C   0  0  0  0  0  0
   -1.0983    4.3513    5.6571 O   0  0  0  0  0  0
   -0.9170    6.0590    7.3593 C   0  0  0  0  0  0
   -0.1714    7.3706    7.0657 C   0  0  0  0  0  0
   -0.1129    7.6916    5.5667 C   0  0  0  0  0  0
    1.3132    7.8843    5.1057 C   0  0  0  0  0  0
    1.7259    8.9182    4.5915 O   0  0  0  0  0  0
    2.0916    6.8123    5.3143 O   0  0  0  0  0  0
   -0.9431    8.4699    7.8086 C   0  0  0  0  0  0
   -0.3975    9.3185    8.4976 O   0  0  0  0  0  0
   -2.2749    8.3942    7.6798 O   0  0  0  0  0  0
    0.9235    2.1726    5.6533 O   0  0  0  0  0  0
    0.0732    1.1261    5.3373 C   0  0  0  0  0  0
   -0.7081    0.6027    6.1208 O   0  0  0  0  0  0
    0.2130    0.6814    3.8754 C   0  0  0  0  0  0
   -1.0885    0.7540    3.0179 C   0  0  0  0  0  0
   -1.3639   -0.3882    2.0230 C   0  0  0  0  0  0
   -1.5316   -1.7216    2.6925 C   0  0  0  0  0  0
   -0.6491   -2.5522    2.8596 O   0  0  0  0  0  0
   -2.7849   -1.9236    3.1271 O   0  0  0  0  0  0
   -2.3737    0.9699    3.8266 C   0  0  0  0  0  0
   -3.1027    1.9286    3.6644 O   0  0  0  0  0  0
   -2.7064   -0.0341    4.6648 O   0  0  0  0  0  0
   -0.7148   -4.7563   13.0257 H   0  0  0  0  0  0
   -1.8448   -5.8777   13.3198 H   0  0  0  0  0  0
   -2.6695   -3.4796   16.4429 H   0  0  0  0  0  0
   -0.6285   -2.4151   17.0211 H   0  0  0  0  0  0
   -0.5243    3.3443   14.1323 H   0  0  0  0  0  0
    1.6694    6.0794    5.8022 H   0  0  0  0  0  0
   -2.5845    7.7560    6.9902 H   0  0  0  0  0  0
   -2.7671   -2.7422    3.6664 H   0  0  0  0  0  0
   -3.5750    0.0647    5.1142 H   0  0  0  0  0  0
  1  2  1  0  0  0
  2  3  1  0  0  0
  3  4  1  0  0  0
  4  5  1  0  0  0
  5  6  1  0  0  0
  5  7  1  0  0  0
  7  8  1  0  0  0
  7 39  1  0  0  0
  8  9  1  0  0  0
  8 27  1  0  0  0
  9 10  1  0  0  0
 10 11  1  0  0  0
 10 12  1  0  0  0
 12 13  1  0  0  0
 13 14  1  0  0  0
 13 26  1  0  0  0
 14 15  1  0  0  0
 15 16  1  0  0  0
 16 17  1  0  0  0
 17 18  1  0  0  0
 18 19  1  0  0  0
 18 25  1  0  0  0
 19 20  1  0  0  0
 20 21  1  0  0  0
 20 24  1  0  0  0
 21 22  1  0  0  0
 21 23  1  0  0  0
 23 51  1  0  0  0
 23 52  1  0  0  0
 24 53  1  0  0  0
 25 54  1  0  0  0
 26 55  1  0  0  0
 27 28  1  0  0  0
 28 29  2  0  0  0
 28 30  1  0  0  0
 30 31  1  0  0  0
 31 32  1  0  0  0
 31 36  1  0  0  0
 32 33  1  0  0  0
 33 34  2  0  0  0
 33 35  1  0  0  0
 35 56  1  0  0  0
 36 37  2  0  0  0
 36 38  1  0  0  0
 38 57  1  0  0  0
 39 40  1  0  0  0
 40 41  2  0  0  0
 40 42  1  0  0  0
 42 43  1  0  0  0
 43 44  1  0  0  0
 43 48  1  0  0  0
 44 45  1  0  0  0
 45 46  2  0  0  0
 45 47  1  0  0  0
 47 58  1  0  0  0
 48 49  2  0  0  0
 48 50  1  0  0  0
 50 59  1  0  0  0
M  END
>  <AUTHOR>
    GENERATED BY OPEN BABEL 2.4.1

>  <CHROM.1>
63.71021133,86.80681914,-54.28900470,-179.66492287,-29.18018870,114.60662637
-68.84188031,106.22456175,179.47338721,-154.60739532,-36.99117203,-58.97582237
-178.16283256,-167.49061777,41.14799724,53.14604693,35.82042067,175.78372922
-173.52020257,-167.82760014,-87.98973512,166.61559022,-75.65092907,-79.99473927
70.08810317,49.35766584,-124.39367017,133.21257551,-120.93620334,-5.11670013
-11.23514916,34.05716974,-121.65137013,-140.14053425,62.37890569,120.24192888
-94.48989047,-171.32539834,-174.11301888,0.22574884,1.90414023,8.30435210
1.17636875,-1.38615878,-1.37643678

>  <COMPND>
    UNNAMED

>  <MASTER>
        0    0    0    0    0    0    0    0  109    0  109    0

>  <Name>
FB1.pdb

>  <RI>
0

>  <Rbt.Current_Directory>
/home/fc/tossine/F10/p3/1_clust04

>  <Rbt.Executable>
rbdock/0.1.0

>  <Rbt.Library>
librxdock.so/0.1.0

>  <Rbt.Parameter_File>
/cluster/rxdock/data/scripts/dock.prm

>  <Rbt.Receptor>
rx_2.prm

>  <SCORE>
35.7395

>  <SCORE.INTER>
10.7495

>  <SCORE.INTER.CONST>
1

>  <SCORE.INTER.POLAR>
-2.66675

>  <SCORE.INTER.REPUL>
0.997292

>  <SCORE.INTER.ROT>
32

>  <SCORE.INTER.VDW>
-22.57

>  <SCORE.INTER.norm>
0.21499

>  <SCORE.INTRA>
19.3371

>  <SCORE.INTRA.DIHEDRAL>
34.2687

>  <SCORE.INTRA.DIHEDRAL.0>
47.3121

>  <SCORE.INTRA.POLAR>
-0.28495

>  <SCORE.INTRA.POLAR.0>
-1.47808

>  <SCORE.INTRA.REPUL>
0

>  <SCORE.INTRA.REPUL.0>
0

>  <SCORE.INTRA.VDW>
3.17159

>  <SCORE.INTRA.VDW.0>
-2.78316

>  <SCORE.INTRA.norm>
0.386742

>  <SCORE.RESTR>
5.65298

>  <SCORE.RESTR.CAVITY>
5.65298

>  <SCORE.RESTR.norm>
0.11306

>  <SCORE.SYSTEM>
0

>  <SCORE.SYSTEM.CONST>
0

>  <SCORE.SYSTEM.DIHEDRAL>
0

>  <SCORE.SYSTEM.norm>
0

>  <SCORE.heavy>
50

>  <SCORE.norm>
0.714791

$$$$
