FB1.pdb
  RxDock  10092021073D
librxdock.so/0.1.0
 59 58  0  0  0  0  0  0  0  0999 V2000
    3.0587   -2.8852    3.9706 C   0  0  0  0  0  0
    1.9030   -3.6509    4.6104 C   0  0  0  0  0  0
    1.4843   -4.8631    3.7622 C   0  0  0  0  0  0
    0.6234   -4.4871    2.5304 C   0  0  0  0  0  0
    0.1292   -2.9988    2.4980 C   0  0  0  0  0  0
   -0.7860   -2.8178    1.2650 C   0  0  0  0  0  0
   -0.6129   -2.5490    3.8265 C   0  0  0  0  0  0
   -1.0602   -1.0138    3.9237 C   0  0  0  0  0  0
   -2.0647   -0.4200    5.0038 C   0  0  0  0  0  0
   -2.3308    1.2043    4.8930 C   0  0  0  0  0  0
   -1.9777    1.6582    3.4775 C   0  0  0  0  0  0
   -3.8001    1.7029    5.2637 C   0  0  0  0  0  0
   -5.1171    1.3835    4.3793 C   0  0  0  0  0  0
   -6.5315    1.1787    5.0223 C   0  0  0  0  0  0
   -6.6799    0.1140    6.2028 C   0  0  0  0  0  0
   -8.0586   -0.4726    6.7024 C   0  0  0  0  0  0
   -8.0688   -1.7086    7.6403 C   0  0  0  0  0  0
   -9.4591   -2.1021    8.2738 C   0  0  0  0  0  0
  -10.2164   -3.2483    7.5917 C   0  0  0  0  0  0
  -11.3506   -2.8896    6.5900 C   0  0  0  0  0  0
  -12.3831   -3.9671    6.1446 C   0  0  0  0  0  0
  -11.9465   -4.9020    5.0254 C   0  0  0  0  0  0
  -12.8802   -4.7300    7.3053 N   0  0  0  0  0  0
  -12.1348   -1.8765    7.2701 O   0  0  0  0  0  0
   -9.2364   -2.4556    9.6431 O   0  0  0  0  0  0
   -5.2615    2.5181    3.5085 O   0  0  0  0  0  0
    0.1602   -0.2459    4.1067 O   0  0  0  0  0  0
    0.9024    0.0064    2.9973 C   0  0  0  0  0  0
    0.6109   -0.2892    1.8541 O   0  0  0  0  0  0
    2.1081    0.8082    3.4036 C   0  0  0  0  0  0
    2.0140    2.2786    2.9658 C   0  0  0  0  0  0
    2.2170    3.2542    4.1321 C   0  0  0  0  0  0
    1.0090    3.2776    5.0397 C   0  0  0  0  0  0
    0.0911    4.0828    4.9264 O   0  0  0  0  0  0
    1.0334    2.3279    5.9864 O   0  0  0  0  0  0
    3.1165    2.4777    1.9166 C   0  0  0  0  0  0
    4.2510    2.0449    2.0509 O   0  0  0  0  0  0
    2.7464    3.2108    0.8576 O   0  0  0  0  0  0
   -1.7255   -3.4724    4.1572 O   0  0  0  0  0  0
   -1.4720   -4.5288    5.0163 C   0  0  0  0  0  0
   -0.5690   -4.5532    5.8424 O   0  0  0  0  0  0
   -2.4586   -5.6879    4.8234 C   0  0  0  0  0  0
   -2.0249   -6.7834    3.8005 C   0  0  0  0  0  0
   -1.5783   -8.1503    4.3504 C   0  0  0  0  0  0
   -2.6136   -8.7977    5.2242 C   0  0  0  0  0  0
   -3.7918   -8.4759    5.2928 O   0  0  0  0  0  0
   -2.1156   -9.8169    5.9409 O   0  0  0  0  0  0
   -3.0434   -7.0544    2.6862 C   0  0  0  0  0  0
   -4.1035   -6.4661    2.6033 O   0  0  0  0  0  0
   -2.6414   -7.9195    1.7316 O   0  0  0  0  0  0
  -12.0885   -5.1372    7.8013 H   0  0  0  0  0  0
  -13.4173   -5.5304    6.9643 H   0  0  0  0  0  0
  -11.6351   -1.0442    7.1325 H   0  0  0  0  0  0
   -9.8695   -1.9578   10.1926 H   0  0  0  0  0  0
   -5.3666    3.3103    4.0616 H   0  0  0  0  0  0
    1.8190    1.7480    5.9746 H   0  0  0  0  0  0
    3.2898    4.0247    0.7122 H   0  0  0  0  0  0
   -2.8635  -10.1946    6.4502 H   0  0  0  0  0  0
   -1.6887   -8.1602    1.7576 H   0  0  0  0  0  0
  1  2  1  0  0  0
  2  3  1  0  0  0
  3  4  1  0  0  0
  4  5  1  0  0  0
  5  6  1  0  0  0
  5  7  1  0  0  0
  7  8  1  0  0  0
  7 39  1  0  0  0
  8  9  1  0  0  0
  8 27  1  0  0  0
  9 10  1  0  0  0
 10 11  1  0  0  0
 10 12  1  0  0  0
 12 13  1  0  0  0
 13 14  1  0  0  0
 13 26  1  0  0  0
 14 15  1  0  0  0
 15 16  1  0  0  0
 16 17  1  0  0  0
 17 18  1  0  0  0
 18 19  1  0  0  0
 18 25  1  0  0  0
 19 20  1  0  0  0
 20 21  1  0  0  0
 20 24  1  0  0  0
 21 22  1  0  0  0
 21 23  1  0  0  0
 23 51  1  0  0  0
 23 52  1  0  0  0
 24 53  1  0  0  0
 25 54  1  0  0  0
 26 55  1  0  0  0
 27 28  1  0  0  0
 28 29  2  0  0  0
 28 30  1  0  0  0
 30 31  1  0  0  0
 31 32  1  0  0  0
 31 36  1  0  0  0
 32 33  1  0  0  0
 33 34  2  0  0  0
 33 35  1  0  0  0
 35 56  1  0  0  0
 36 37  2  0  0  0
 36 38  1  0  0  0
 38 57  1  0  0  0
 39 40  1  0  0  0
 40 41  2  0  0  0
 40 42  1  0  0  0
 42 43  1  0  0  0
 43 44  1  0  0  0
 43 48  1  0  0  0
 44 45  1  0  0  0
 45 46  2  0  0  0
 45 47  1  0  0  0
 47 58  1  0  0  0
 48 49  2  0  0  0
 48 50  1  0  0  0
 50 59  1  0  0  0
M  END
>  <AUTHOR>
    GENERATED BY OPEN BABEL 2.4.1

>  <CHROM.1>
-77.67108834,-9.96342846,-176.26230842,175.78264008,166.63022836,93.19407932
178.91930555,79.82932109,21.50919436,-68.40461372,146.84524975,-52.62569234
-59.71699426,-163.91650521,167.21147440,170.91614613,99.44886072,-98.48707850
129.50610507,-164.46799155,-82.29619093,80.82369392,-55.93049767,4.02868106
-106.94704915,126.16466482,-73.42012871,-44.24705508,-93.60200651,0.17738193
121.29891183,23.93693831,91.00064588,107.21104987,56.03891840,-0.01766159
15.41233033,-177.96967753,-10.55643734,-2.88452136,-2.06165545,4.57116326
-0.34596089,-0.31432252,-3.09708444

>  <COMPND>
    UNNAMED

>  <MASTER>
        0    0    0    0    0    0    0    0  109    0  109    0

>  <Name>
FB1.pdb

>  <RI>
0

>  <Rbt.Current_Directory>
/home/fc/tossine/F10/p3/1_clust04

>  <Rbt.Executable>
rbdock/0.1.0

>  <Rbt.Library>
librxdock.so/0.1.0

>  <Rbt.Parameter_File>
/cluster/rxdock/data/scripts/dock.prm

>  <Rbt.Receptor>
rx_3.prm

>  <SCORE>
43.2269

>  <SCORE.INTER>
13.3192

>  <SCORE.INTER.CONST>
1

>  <SCORE.INTER.POLAR>
-1.74458

>  <SCORE.INTER.REPUL>
0.411646

>  <SCORE.INTER.ROT>
32

>  <SCORE.INTER.VDW>
-20.2075

>  <SCORE.INTER.norm>
0.266383

>  <SCORE.INTRA>
25.9101

>  <SCORE.INTRA.DIHEDRAL>
40.9917

>  <SCORE.INTRA.DIHEDRAL.0>
47.3121

>  <SCORE.INTRA.POLAR>
1.47808

>  <SCORE.INTRA.POLAR.0>
-1.47808

>  <SCORE.INTRA.REPUL>
0

>  <SCORE.INTRA.REPUL.0>
0

>  <SCORE.INTRA.VDW>
0.388811

>  <SCORE.INTRA.VDW.0>
-2.78316

>  <SCORE.INTRA.norm>
0.518202

>  <SCORE.RESTR>
3.9976

>  <SCORE.RESTR.CAVITY>
3.9976

>  <SCORE.RESTR.norm>
0.079952

>  <SCORE.SYSTEM>
0

>  <SCORE.SYSTEM.CONST>
0

>  <SCORE.SYSTEM.DIHEDRAL>
0

>  <SCORE.SYSTEM.norm>
0

>  <SCORE.heavy>
50

>  <SCORE.norm>
0.864537

$$$$
