FB1.pdb
  RxDock  10092018143D
librxdock.so/0.1.0
 59 58  0  0  0  0  0  0  0  0999 V2000
   -5.5190   -9.3830    1.3572 C   0  0  0  0  0  0
   -5.9185   -7.9145    1.4815 C   0  0  0  0  0  0
   -4.6929   -6.9865    1.4509 C   0  0  0  0  0  0
   -5.0549   -5.4826    1.5337 C   0  0  0  0  0  0
   -5.8150   -5.0558    2.8377 C   0  0  0  0  0  0
   -4.9833   -5.5162    4.0572 C   0  0  0  0  0  0
   -6.1194   -3.5003    2.9130 C   0  0  0  0  0  0
   -4.8930   -2.5068    2.6389 C   0  0  0  0  0  0
   -4.3884   -1.3784    3.6390 C   0  0  0  0  0  0
   -5.4730   -0.1715    3.9365 C   0  0  0  0  0  0
   -6.6195   -0.7439    4.7684 C   0  0  0  0  0  0
   -4.8948    1.1335    4.6490 C   0  0  0  0  0  0
   -5.5225    2.6150    4.4768 C   0  0  0  0  0  0
   -5.0765    3.8251    5.3673 C   0  0  0  0  0  0
   -3.6186    3.7903    6.0174 C   0  0  0  0  0  0
   -3.0962    4.8312    7.0842 C   0  0  0  0  0  0
   -1.6393    4.7243    7.6070 C   0  0  0  0  0  0
   -1.2310    5.7145    8.7655 C   0  0  0  0  0  0
    0.2314    5.6569    9.2246 C   0  0  0  0  0  0
    0.6099    4.6607   10.3571 C   0  0  0  0  0  0
    1.0803    3.2159   10.0157 C   0  0  0  0  0  0
    1.1902    2.2455   11.1834 C   0  0  0  0  0  0
    0.2664    2.6416    8.9275 N   0  0  0  0  0  0
    1.7410    5.2759   11.0249 O   0  0  0  0  0  0
   -1.5184    7.0474    8.3291 O   0  0  0  0  0  0
   -5.1972    3.0000    3.1305 O   0  0  0  0  0  0
   -3.7271   -3.3488    2.4287 O   0  0  0  0  0  0
   -2.6094   -2.7456    1.9469 C   0  0  0  0  0  0
   -2.5712   -1.7304    1.2780 O   0  0  0  0  0  0
   -1.4077   -3.4871    2.4642 C   0  0  0  0  0  0
   -0.8547   -4.4979    1.4469 C   0  0  0  0  0  0
   -1.7561   -5.7294    1.2911 C   0  0  0  0  0  0
   -0.9530   -6.9459    0.8928 C   0  0  0  0  0  0
   -0.9853   -8.0093    1.5025 O   0  0  0  0  0  0
   -0.1974   -6.7535   -0.1984 O   0  0  0  0  0  0
   -0.7594   -3.7446    0.1129 C   0  0  0  0  0  0
   -1.6387   -3.7752   -0.7346 O   0  0  0  0  0  0
    0.3938   -3.0867   -0.0695 O   0  0  0  0  0  0
   -7.3102   -3.1479    2.1021 O   0  0  0  0  0  0
   -8.3946   -2.5695    2.7404 C   0  0  0  0  0  0
   -9.2186   -3.1823    3.4067 O   0  0  0  0  0  0
   -8.4585   -1.0519    2.5235 C   0  0  0  0  0  0
   -9.8767   -0.4109    2.6340 C   0  0  0  0  0  0
  -10.4373   -0.1330    4.0407 C   0  0  0  0  0  0
  -10.3688   -1.3289    4.9462 C   0  0  0  0  0  0
   -9.4258   -1.6250    5.6670 O   0  0  0  0  0  0
  -11.4890   -2.0664    4.9077 O   0  0  0  0  0  0
  -10.0636    0.8697    1.8109 C   0  0  0  0  0  0
  -10.5498    1.8845    2.2698 O   0  0  0  0  0  0
   -9.5527    0.8356    0.5623 O   0  0  0  0  0  0
    0.6363    1.7243    8.6820 H   0  0  0  0  0  0
    0.3951    3.2109    8.0880 H   0  0  0  0  0  0
    1.3600    6.0468   11.4960 H   0  0  0  0  0  0
   -1.0902    7.1832    7.4638 H   0  0  0  0  0  0
   -5.8886    2.6520    2.5428 H   0  0  0  0  0  0
    0.4238   -7.4771   -0.4079 H   0  0  0  0  0  0
    1.0292   -3.1558    0.6856 H   0  0  0  0  0  0
  -12.0428   -1.6995    4.1866 H   0  0  0  0  0  0
   -9.2279   -0.0434    0.2655 H   0  0  0  0  0  0
  1  2  1  0  0  0
  2  3  1  0  0  0
  3  4  1  0  0  0
  4  5  1  0  0  0
  5  6  1  0  0  0
  5  7  1  0  0  0
  7  8  1  0  0  0
  7 39  1  0  0  0
  8  9  1  0  0  0
  8 27  1  0  0  0
  9 10  1  0  0  0
 10 11  1  0  0  0
 10 12  1  0  0  0
 12 13  1  0  0  0
 13 14  1  0  0  0
 13 26  1  0  0  0
 14 15  1  0  0  0
 15 16  1  0  0  0
 16 17  1  0  0  0
 17 18  1  0  0  0
 18 19  1  0  0  0
 18 25  1  0  0  0
 19 20  1  0  0  0
 20 21  1  0  0  0
 20 24  1  0  0  0
 21 22  1  0  0  0
 21 23  1  0  0  0
 23 51  1  0  0  0
 23 52  1  0  0  0
 24 53  1  0  0  0
 25 54  1  0  0  0
 26 55  1  0  0  0
 27 28  1  0  0  0
 28 29  2  0  0  0
 28 30  1  0  0  0
 30 31  1  0  0  0
 31 32  1  0  0  0
 31 36  1  0  0  0
 32 33  1  0  0  0
 33 34  2  0  0  0
 33 35  1  0  0  0
 35 56  1  0  0  0
 36 37  2  0  0  0
 36 38  1  0  0  0
 38 57  1  0  0  0
 39 40  1  0  0  0
 40 41  2  0  0  0
 40 42  1  0  0  0
 42 43  1  0  0  0
 43 44  1  0  0  0
 43 48  1  0  0  0
 44 45  1  0  0  0
 45 46  2  0  0  0
 45 47  1  0  0  0
 47 58  1  0  0  0
 48 49  2  0  0  0
 48 50  1  0  0  0
 50 59  1  0  0  0
M  END
>  <AUTHOR>
    GENERATED BY OPEN BABEL 2.4.1

>  <CHROM.1>
178.35115692,60.71507484,54.07835822,-50.01228856,-123.64766652,119.96640017
-64.02087836,168.76968399,69.82405855,152.37454528,169.80229461,25.32315643
85.81014646,-171.56678758,-177.81759806,-174.57954152,-176.74814059,-88.96262674
-52.76527739,91.23042943,-169.52917282,70.52949357,176.12637939,-25.68707056
97.69025248,-72.52813877,-151.46711331,-94.74249718,126.45410028,171.91170744
-1.12879918,-78.28891553,154.31435309,79.89638595,-51.17902133,-131.66242295
88.93942604,7.75328278,8.25400761,-4.34852922,-1.06230433,3.93283169,-1.89823042
-0.16722196,0.57754855

>  <COMPND>
    UNNAMED

>  <MASTER>
        0    0    0    0    0    0    0    0  109    0  109    0

>  <Name>
FB1.pdb

>  <RI>
0

>  <Rbt.Current_Directory>
/home/fc/tossine/F10/p3/1_clust04

>  <Rbt.Executable>
rbdock/0.1.0

>  <Rbt.Library>
librxdock.so/0.1.0

>  <Rbt.Parameter_File>
/cluster/rxdock/data/scripts/dock.prm

>  <Rbt.Receptor>
rx_0.prm

>  <SCORE>
51.9086

>  <SCORE.INTER>
27.5278

>  <SCORE.INTER.CONST>
1

>  <SCORE.INTER.POLAR>
-2.72494

>  <SCORE.INTER.REPUL>
0.136344

>  <SCORE.INTER.ROT>
32

>  <SCORE.INTER.VDW>
-1.28914

>  <SCORE.INTER.norm>
0.550556

>  <SCORE.INTRA>
23.4288

>  <SCORE.INTRA.DIHEDRAL>
27.4645

>  <SCORE.INTRA.DIHEDRAL.0>
47.3121

>  <SCORE.INTRA.POLAR>
1.47808

>  <SCORE.INTRA.POLAR.0>
-1.47808

>  <SCORE.INTRA.REPUL>
0

>  <SCORE.INTRA.REPUL.0>
0

>  <SCORE.INTRA.VDW>
4.67107

>  <SCORE.INTRA.VDW.0>
-2.78316

>  <SCORE.INTRA.norm>
0.468575

>  <SCORE.RESTR>
0.952023

>  <SCORE.RESTR.CAVITY>
0.952023

>  <SCORE.RESTR.norm>
0.0190405

>  <SCORE.SYSTEM>
0

>  <SCORE.SYSTEM.CONST>
0

>  <SCORE.SYSTEM.DIHEDRAL>
0

>  <SCORE.SYSTEM.norm>
0

>  <SCORE.heavy>
50

>  <SCORE.norm>
1.03817

$$$$
