FB1.pdb
  RxDock  10092020133D
librxdock.so/0.1.0
 59 58  0  0  0  0  0  0  0  0999 V2000
   -5.6700    0.9131    7.6888 C   0  0  0  0  0  0
   -5.3729    2.1635    6.8646 C   0  0  0  0  0  0
   -4.6585    1.8205    5.5469 C   0  0  0  0  0  0
   -3.1937    1.3554    5.7415 C   0  0  0  0  0  0
   -2.1437    2.0761    4.8258 C   0  0  0  0  0  0
   -2.1057    3.5720    5.2148 C   0  0  0  0  0  0
   -0.6944    1.4340    4.8977 C   0  0  0  0  0  0
    0.2882    1.7205    3.6654 C   0  0  0  0  0  0
    1.8659    1.8871    3.7726 C   0  0  0  0  0  0
    2.7452    0.7985    2.8991 C   0  0  0  0  0  0
    4.2247    1.1589    3.0232 C   0  0  0  0  0  0
    2.5356   -0.7377    3.2748 C   0  0  0  0  0  0
    1.1234   -1.5180    3.1500 C   0  0  0  0  0  0
    1.0309   -3.0264    2.7350 C   0  0  0  0  0  0
    0.8356   -3.3761    1.1894 C   0  0  0  0  0  0
    0.6799   -4.8422    0.6228 C   0  0  0  0  0  0
   -0.1986   -5.8679    1.3867 C   0  0  0  0  0  0
    0.1233   -6.0705    2.9179 C   0  0  0  0  0  0
   -0.8444   -6.9647    3.7031 C   0  0  0  0  0  0
   -2.2346   -6.3852    4.0899 C   0  0  0  0  0  0
   -3.2252   -7.2171    4.9572 C   0  0  0  0  0  0
   -4.5666   -7.5522    4.3202 C   0  0  0  0  0  0
   -2.5724   -8.4317    5.4816 N   0  0  0  0  0  0
   -1.9346   -5.2101    4.8855 O   0  0  0  0  0  0
    1.4399   -6.6229    3.0231 O   0  0  0  0  0  0
    0.5488   -1.4551    4.4662 O   0  0  0  0  0  0
    0.1052    0.6188    2.7352 O   0  0  0  0  0  0
   -1.0147    0.6400    1.9667 C   0  0  0  0  0  0
   -1.7698    1.5824    1.8214 O   0  0  0  0  0  0
   -1.1164   -0.6712    1.2374 C   0  0  0  0  0  0
   -2.3498   -1.4864    1.6576 C   0  0  0  0  0  0
   -2.4772   -2.8036    0.8817 C   0  0  0  0  0  0
   -3.7113   -3.5672    1.3027 C   0  0  0  0  0  0
   -4.8475   -3.1112    1.2336 O   0  0  0  0  0  0
   -3.4466   -4.7997    1.7609 O   0  0  0  0  0  0
   -2.1752   -1.7738    3.1553 C   0  0  0  0  0  0
   -1.6278   -2.7790    3.5821 O   0  0  0  0  0  0
   -2.7184   -0.8520    3.9623 O   0  0  0  0  0  0
   -0.0465    1.7193    6.2011 O   0  0  0  0  0  0
    0.6966    2.8811    6.3275 C   0  0  0  0  0  0
    0.6434    3.8292    5.5550 O   0  0  0  0  0  0
    1.6109    2.8582    7.5595 C   0  0  0  0  0  0
    1.0213    3.5020    8.8527 C   0  0  0  0  0  0
   -0.1433    4.4973    8.6989 C   0  0  0  0  0  0
   -0.3863    5.3116    9.9368 C   0  0  0  0  0  0
    0.0247    5.0456   11.0579 O   0  0  0  0  0  0
   -1.1099    6.4146    9.6916 O   0  0  0  0  0  0
    0.6176    2.4968    9.9384 C   0  0  0  0  0  0
   -0.4996    2.0256   10.0195 O   0  0  0  0  0  0
    1.6176    2.0809   10.7436 O   0  0  0  0  0  0
   -3.2730   -9.0205    5.9298 H   0  0  0  0  0  0
   -1.9352   -8.1610    6.2340 H   0  0  0  0  0  0
   -2.8096   -4.8097    5.0738 H   0  0  0  0  0  0
    1.4580   -7.4625    2.5279 H   0  0  0  0  0  0
    1.1698   -1.8735    5.0857 H   0  0  0  0  0  0
   -2.5144   -5.0804    1.6868 H   0  0  0  0  0  0
   -3.1709   -0.1094    3.4905 H   0  0  0  0  0  0
   -1.1446    6.5174    8.7172 H   0  0  0  0  0  0
    2.5254    2.2449   10.4042 H   0  0  0  0  0  0
  1  2  1  0  0  0
  2  3  1  0  0  0
  3  4  1  0  0  0
  4  5  1  0  0  0
  5  6  1  0  0  0
  5  7  1  0  0  0
  7  8  1  0  0  0
  7 39  1  0  0  0
  8  9  1  0  0  0
  8 27  1  0  0  0
  9 10  1  0  0  0
 10 11  1  0  0  0
 10 12  1  0  0  0
 12 13  1  0  0  0
 13 14  1  0  0  0
 13 26  1  0  0  0
 14 15  1  0  0  0
 15 16  1  0  0  0
 16 17  1  0  0  0
 17 18  1  0  0  0
 18 19  1  0  0  0
 18 25  1  0  0  0
 19 20  1  0  0  0
 20 21  1  0  0  0
 20 24  1  0  0  0
 21 22  1  0  0  0
 21 23  1  0  0  0
 23 51  1  0  0  0
 23 52  1  0  0  0
 24 53  1  0  0  0
 25 54  1  0  0  0
 26 55  1  0  0  0
 27 28  1  0  0  0
 28 29  2  0  0  0
 28 30  1  0  0  0
 30 31  1  0  0  0
 31 32  1  0  0  0
 31 36  1  0  0  0
 32 33  1  0  0  0
 33 34  2  0  0  0
 33 35  1  0  0  0
 35 56  1  0  0  0
 36 37  2  0  0  0
 36 38  1  0  0  0
 38 57  1  0  0  0
 39 40  1  0  0  0
 40 41  2  0  0  0
 40 42  1  0  0  0
 42 43  1  0  0  0
 43 44  1  0  0  0
 43 48  1  0  0  0
 44 45  1  0  0  0
 45 46  2  0  0  0
 45 47  1  0  0  0
 47 58  1  0  0  0
 48 49  2  0  0  0
 48 50  1  0  0  0
 50 59  1  0  0  0
M  END
>  <AUTHOR>
    GENERATED BY OPEN BABEL 2.4.1

>  <CHROM.1>
-71.00755873,-130.55431274,64.68729755,158.59799054,146.24813644,-88.81471012
120.17467975,76.84567438,175.72162327,61.61515620,144.86876200,-92.52693828
-58.60737093,-177.98888103,41.37482910,-52.90260376,173.39535427,-75.40627708
-58.30549246,-176.44845615,-119.13532509,176.03345270,-171.96681520,12.55445783
115.50075698,178.19362764,-179.03286065,-91.58586435,57.85947730,-5.59599924
0.63100968,16.01025425,-93.70376133,-20.57164581,-164.93938228,-91.26362761
-17.25926309,-11.77623027,-17.21017153,-0.91381793,-0.67948270,4.71919138
1.41209321,0.58981363,0.63580138

>  <COMPND>
    UNNAMED

>  <MASTER>
        0    0    0    0    0    0    0    0  109    0  109    0

>  <Name>
FB1.pdb

>  <RI>
0

>  <Rbt.Current_Directory>
/home/fc/tossine/F10/p3/1_clust04

>  <Rbt.Executable>
rbdock/0.1.0

>  <Rbt.Library>
librxdock.so/0.1.0

>  <Rbt.Parameter_File>
/cluster/rxdock/data/scripts/dock.prm

>  <Rbt.Receptor>
rx_2.prm

>  <SCORE>
27.3797

>  <SCORE.INTER>
6.05514

>  <SCORE.INTER.CONST>
1

>  <SCORE.INTER.POLAR>
-2.94635

>  <SCORE.INTER.REPUL>
0.228212

>  <SCORE.INTER.ROT>
32

>  <SCORE.INTER.VDW>
-22.4683

>  <SCORE.INTER.norm>
0.121103

>  <SCORE.INTRA>
15.6064

>  <SCORE.INTRA.DIHEDRAL>
15.8887

>  <SCORE.INTRA.DIHEDRAL.0>
47.3121

>  <SCORE.INTRA.POLAR>
1.47808

>  <SCORE.INTRA.POLAR.0>
-1.47808

>  <SCORE.INTRA.REPUL>
0

>  <SCORE.INTRA.REPUL.0>
0

>  <SCORE.INTRA.VDW>
2.63664

>  <SCORE.INTRA.VDW.0>
-2.78316

>  <SCORE.INTRA.norm>
0.312129

>  <SCORE.RESTR>
5.71814

>  <SCORE.RESTR.CAVITY>
5.71814

>  <SCORE.RESTR.norm>
0.114363

>  <SCORE.SYSTEM>
0

>  <SCORE.SYSTEM.CONST>
0

>  <SCORE.SYSTEM.DIHEDRAL>
0

>  <SCORE.SYSTEM.norm>
0

>  <SCORE.heavy>
50

>  <SCORE.norm>
0.547595

$$$$
