FB1.pdb
  RxDock  10092019123D
librxdock.so/0.1.0
 59 58  0  0  0  0  0  0  0  0999 V2000
   -5.8726    4.9305    2.3730 C   0  0  0  0  0  0
   -4.8773    3.7854    2.5450 C   0  0  0  0  0  0
   -4.0737    3.9205    3.8490 C   0  0  0  0  0  0
   -3.0932    2.7466    4.0945 C   0  0  0  0  0  0
   -1.8459    3.1001    4.9775 C   0  0  0  0  0  0
   -2.2159    2.8590    6.4592 C   0  0  0  0  0  0
   -0.5393    2.2922    4.5801 C   0  0  0  0  0  0
    0.8277    2.7270    5.2930 C   0  0  0  0  0  0
    2.1935    1.9156    5.2253 C   0  0  0  0  0  0
    2.3759    0.9635    3.8905 C   0  0  0  0  0  0
    2.4286    1.8628    2.6566 C   0  0  0  0  0  0
    3.6348   -0.0162    3.8925 C   0  0  0  0  0  0
    5.1459    0.4470    3.5451 C   0  0  0  0  0  0
    5.5321    1.0904    2.1693 C   0  0  0  0  0  0
    7.0707    1.0995    1.7427 C   0  0  0  0  0  0
    7.9236   -0.2005    1.4653 C   0  0  0  0  0  0
    7.3893   -1.2686    0.4749 C   0  0  0  0  0  0
    8.3735   -2.4460    0.1083 C   0  0  0  0  0  0
    8.8172   -2.5291   -1.3576 C   0  0  0  0  0  0
    9.5652   -1.3118   -1.9717 C   0  0  0  0  0  0
   10.4046   -1.4735   -3.2735 C   0  0  0  0  0  0
   11.4373   -2.5919   -3.2792 C   0  0  0  0  0  0
    9.5279   -1.5592   -4.4569 N   0  0  0  0  0  0
    8.5161   -0.3712   -2.3158 O   0  0  0  0  0  0
    9.5393   -2.3191    0.9297 O   0  0  0  0  0  0
    5.4612    1.4470    4.5286 O   0  0  0  0  0  0
    1.1622    4.0390    4.7646 O   0  0  0  0  0  0
    0.6764    5.1161    5.4348 C   0  0  0  0  0  0
   -0.1921    5.1020    6.2862 O   0  0  0  0  0  0
    1.4646    6.3286    5.0223 C   0  0  0  0  0  0
    0.5674    7.5329    4.6954 C   0  0  0  0  0  0
    1.3468    8.8536    4.6541 C   0  0  0  0  0  0
    2.1794    9.0344    5.9020 C   0  0  0  0  0  0
    3.3664    9.3418    5.8868 O   0  0  0  0  0  0
    1.4941    8.8277    7.0363 O   0  0  0  0  0  0
   -0.0452    7.2412    3.3186 C   0  0  0  0  0  0
    0.6267    7.0581    2.3149 O   0  0  0  0  0  0
   -1.3851    7.2524    3.2958 O   0  0  0  0  0  0
   -0.7678    0.8292    4.6651 O   0  0  0  0  0  0
   -1.4436    0.2063    3.6291 C   0  0  0  0  0  0
   -1.3699    0.5354    2.4524 O   0  0  0  0  0  0
   -2.3108   -0.9619    4.1166 C   0  0  0  0  0  0
   -1.7609   -2.3889    3.8069 C   0  0  0  0  0  0
   -1.4774   -2.7518    2.3378 C   0  0  0  0  0  0
   -2.7275   -2.9851    1.5395 C   0  0  0  0  0  0
   -3.8125   -2.4578    1.7423 O   0  0  0  0  0  0
   -2.5373   -3.8464    0.5283 O   0  0  0  0  0  0
   -0.5212   -2.7846    4.6186 C   0  0  0  0  0  0
   -0.4746   -3.7843    5.3078 O   0  0  0  0  0  0
    0.5643   -2.0037    4.4361 O   0  0  0  0  0  0
    8.9932   -0.6956   -4.5398 H   0  0  0  0  0  0
    8.8288   -2.2872   -4.2935 H   0  0  0  0  0  0
    8.3624    0.1389   -1.4927 H   0  0  0  0  0  0
    9.2838   -2.5078    1.8515 H   0  0  0  0  0  0
    5.4438    1.0243    5.4036 H   0  0  0  0  0  0
    0.5464    8.6238    6.9191 H   0  0  0  0  0  0
   -1.7813    7.1003    2.4022 H   0  0  0  0  0  0
   -3.3874   -3.9027    0.0431 H   0  0  0  0  0  0
    1.3761   -2.2969    4.9064 H   0  0  0  0  0  0
  1  2  1  0  0  0
  2  3  1  0  0  0
  3  4  1  0  0  0
  4  5  1  0  0  0
  5  6  1  0  0  0
  5  7  1  0  0  0
  7  8  1  0  0  0
  7 39  1  0  0  0
  8  9  1  0  0  0
  8 27  1  0  0  0
  9 10  1  0  0  0
 10 11  1  0  0  0
 10 12  1  0  0  0
 12 13  1  0  0  0
 13 14  1  0  0  0
 13 26  1  0  0  0
 14 15  1  0  0  0
 15 16  1  0  0  0
 16 17  1  0  0  0
 17 18  1  0  0  0
 18 19  1  0  0  0
 18 25  1  0  0  0
 19 20  1  0  0  0
 20 21  1  0  0  0
 20 24  1  0  0  0
 21 22  1  0  0  0
 21 23  1  0  0  0
 23 51  1  0  0  0
 23 52  1  0  0  0
 24 53  1  0  0  0
 25 54  1  0  0  0
 26 55  1  0  0  0
 27 28  1  0  0  0
 28 29  2  0  0  0
 28 30  1  0  0  0
 30 31  1  0  0  0
 31 32  1  0  0  0
 31 36  1  0  0  0
 32 33  1  0  0  0
 33 34  2  0  0  0
 33 35  1  0  0  0
 35 56  1  0  0  0
 36 37  2  0  0  0
 36 38  1  0  0  0
 38 57  1  0  0  0
 39 40  1  0  0  0
 40 41  2  0  0  0
 40 42  1  0  0  0
 42 43  1  0  0  0
 43 44  1  0  0  0
 43 48  1  0  0  0
 44 45  1  0  0  0
 45 46  2  0  0  0
 45 47  1  0  0  0
 47 58  1  0  0  0
 48 49  2  0  0  0
 48 50  1  0  0  0
 50 59  1  0  0  0
M  END
>  <AUTHOR>
    GENERATED BY OPEN BABEL 2.4.1

>  <CHROM.1>
177.53451311,153.56618488,89.08257978,172.01957360,169.58501495,78.94720149
25.87491674,90.18086987,64.40383821,-79.49363396,-59.05454873,-161.44564639
63.22388137,64.13297818,52.03721909,172.45348118,-115.85257472,59.36103541
68.24661341,161.58173130,-52.13282333,86.10814401,61.62163841,-13.72040697
133.56244164,164.20003828,-51.00414310,-59.08530241,130.86769696,-2.31376119
177.68297844,33.91202388,-105.50054189,-57.11656689,-73.61323491,124.04823189
29.46471552,-177.36551858,-175.74870612,1.94529308,1.64266841,2.90073139
2.51314490,0.30740309,0.33347079

>  <COMPND>
    UNNAMED

>  <MASTER>
        0    0    0    0    0    0    0    0  109    0  109    0

>  <Name>
FB1.pdb

>  <RI>
0

>  <Rbt.Current_Directory>
/home/fc/tossine/F10/p3/1_clust04

>  <Rbt.Executable>
rbdock/0.1.0

>  <Rbt.Library>
librxdock.so/0.1.0

>  <Rbt.Parameter_File>
/cluster/rxdock/data/scripts/dock.prm

>  <Rbt.Receptor>
rx_1.prm

>  <SCORE>
10.5616

>  <SCORE.INTER>
3.16981

>  <SCORE.INTER.CONST>
1

>  <SCORE.INTER.POLAR>
-1.76054

>  <SCORE.INTER.REPUL>
0.208061

>  <SCORE.INTER.ROT>
32

>  <SCORE.INTER.VDW>
-29.2847

>  <SCORE.INTER.norm>
0.0633962

>  <SCORE.INTRA>
4.66699

>  <SCORE.INTRA.DIHEDRAL>
7.23224

>  <SCORE.INTRA.DIHEDRAL.0>
47.3121

>  <SCORE.INTRA.POLAR>
1.47808

>  <SCORE.INTRA.POLAR.0>
-1.47808

>  <SCORE.INTRA.REPUL>
0.059352

>  <SCORE.INTRA.REPUL.0>
0

>  <SCORE.INTRA.VDW>
-4.27135

>  <SCORE.INTRA.VDW.0>
-2.78316

>  <SCORE.INTRA.norm>
0.0933398

>  <SCORE.RESTR>
2.72477

>  <SCORE.RESTR.CAVITY>
2.72477

>  <SCORE.RESTR.norm>
0.0544954

>  <SCORE.SYSTEM>
0

>  <SCORE.SYSTEM.CONST>
0

>  <SCORE.SYSTEM.DIHEDRAL>
0

>  <SCORE.SYSTEM.norm>
0

>  <SCORE.heavy>
50

>  <SCORE.norm>
0.211231

$$$$
