FB1.pdb
  RxDock  10092019103D
librxdock.so/0.1.0
 59 58  0  0  0  0  0  0  0  0999 V2000
   -8.0690    0.2552    5.7389 C   0  0  0  0  0  0
   -6.9301   -0.4998    5.0575 C   0  0  0  0  0  0
   -7.4415   -1.7306    4.2908 C   0  0  0  0  0  0
   -6.3085   -2.6612    3.7906 C   0  0  0  0  0  0
   -6.7219   -3.6501    2.6453 C   0  0  0  0  0  0
   -7.1412   -2.8169    1.4123 C   0  0  0  0  0  0
   -5.5857   -4.6912    2.2669 C   0  0  0  0  0  0
   -4.0709   -4.2373    2.5233 C   0  0  0  0  0  0
   -2.8249   -4.6630    1.6320 C   0  0  0  0  0  0
   -1.6753   -5.5500    2.4149 C   0  0  0  0  0  0
   -0.9514   -6.4199    1.3885 C   0  0  0  0  0  0
   -0.6072   -4.7236    3.2641 C   0  0  0  0  0  0
    0.1921   -3.4317    2.7067 C   0  0  0  0  0  0
   -0.3244   -2.5827    1.4949 C   0  0  0  0  0  0
    0.5480   -1.3330    1.0191 C   0  0  0  0  0  0
    0.4129    0.1235    1.6150 C   0  0  0  0  0  0
    1.2140    1.2884    0.9759 C   0  0  0  0  0  0
    2.5194    1.7465    1.7343 C   0  0  0  0  0  0
    3.7936    0.9457    1.4382 C   0  0  0  0  0  0
    5.1121    1.3698    2.1454 C   0  0  0  0  0  0
    5.3426    1.0443    3.6508 C   0  0  0  0  0  0
    6.3628    1.9060    4.3817 C   0  0  0  0  0  0
    4.0622    1.0078    4.3827 N   0  0  0  0  0  0
    6.1552    0.6487    1.4413 O   0  0  0  0  0  0
    2.7598    3.1200    1.4098 O   0  0  0  0  0  0
    0.2344   -2.5169    3.8148 O   0  0  0  0  0  0
   -4.0683   -2.7847    2.4751 O   0  0  0  0  0  0
   -3.1796   -2.1426    3.2771 C   0  0  0  0  0  0
   -2.2220   -2.6432    3.8354 O   0  0  0  0  0  0
   -3.5158   -0.6768    3.2822 C   0  0  0  0  0  0
   -2.7340    0.1044    4.3503 C   0  0  0  0  0  0
   -1.4343    0.7090    3.8039 C   0  0  0  0  0  0
   -0.3182    0.6091    4.8176 C   0  0  0  0  0  0
    0.7133   -0.0269    4.6303 O   0  0  0  0  0  0
   -0.5617    1.2872    5.9489 O   0  0  0  0  0  0
   -3.6728    1.2211    4.8277 C   0  0  0  0  0  0
   -4.4718    1.7806    4.0922 O   0  0  0  0  0  0
   -3.5102    1.5691    6.1116 O   0  0  0  0  0  0
   -5.8695   -6.0272    2.8453 O   0  0  0  0  0  0
   -5.9428   -7.1137    1.9897 C   0  0  0  0  0  0
   -6.9849   -7.6270    1.6037 O   0  0  0  0  0  0
   -4.5569   -7.6178    1.5661 C   0  0  0  0  0  0
   -3.9310   -8.7217    2.4739 C   0  0  0  0  0  0
   -2.5695   -9.3108    2.0621 C   0  0  0  0  0  0
   -2.5200   -9.7201    0.6183 C   0  0  0  0  0  0
   -2.6635   -8.9738   -0.3403 O   0  0  0  0  0  0
   -2.2753  -11.0304    0.4645 O   0  0  0  0  0  0
   -3.8320   -8.3466    3.9577 C   0  0  0  0  0  0
   -3.5825   -7.2199    4.3387 O   0  0  0  0  0  0
   -4.1470   -9.3302    4.8263 O   0  0  0  0  0  0
    4.2488    0.8763    5.3758 H   0  0  0  0  0  0
    3.5472    0.1715    4.0984 H   0  0  0  0  0  0
    5.9059   -0.2954    1.5307 H   0  0  0  0  0  0
    2.7817    3.2038    0.4387 H   0  0  0  0  0  0
    0.7783   -2.9166    4.5141 H   0  0  0  0  0  0
   -1.4296    1.7329    5.9889 H   0  0  0  0  0  0
   -4.1406    2.2611    6.4319 H   0  0  0  0  0  0
   -2.2088  -11.4118    1.3653 H   0  0  0  0  0  0
   -4.3654  -10.1971    4.4175 H   0  0  0  0  0  0
  1  2  1  0  0  0
  2  3  1  0  0  0
  3  4  1  0  0  0
  4  5  1  0  0  0
  5  6  1  0  0  0
  5  7  1  0  0  0
  7  8  1  0  0  0
  7 39  1  0  0  0
  8  9  1  0  0  0
  8 27  1  0  0  0
  9 10  1  0  0  0
 10 11  1  0  0  0
 10 12  1  0  0  0
 12 13  1  0  0  0
 13 14  1  0  0  0
 13 26  1  0  0  0
 14 15  1  0  0  0
 15 16  1  0  0  0
 16 17  1  0  0  0
 17 18  1  0  0  0
 18 19  1  0  0  0
 18 25  1  0  0  0
 19 20  1  0  0  0
 20 21  1  0  0  0
 20 24  1  0  0  0
 21 22  1  0  0  0
 21 23  1  0  0  0
 23 51  1  0  0  0
 23 52  1  0  0  0
 24 53  1  0  0  0
 25 54  1  0  0  0
 26 55  1  0  0  0
 27 28  1  0  0  0
 28 29  2  0  0  0
 28 30  1  0  0  0
 30 31  1  0  0  0
 31 32  1  0  0  0
 31 36  1  0  0  0
 32 33  1  0  0  0
 33 34  2  0  0  0
 33 35  1  0  0  0
 35 56  1  0  0  0
 36 37  2  0  0  0
 36 38  1  0  0  0
 38 57  1  0  0  0
 39 40  1  0  0  0
 40 41  2  0  0  0
 40 42  1  0  0  0
 42 43  1  0  0  0
 43 44  1  0  0  0
 43 48  1  0  0  0
 44 45  1  0  0  0
 45 46  2  0  0  0
 45 47  1  0  0  0
 47 58  1  0  0  0
 48 49  2  0  0  0
 48 50  1  0  0  0
 50 59  1  0  0  0
M  END
>  <AUTHOR>
    GENERATED BY OPEN BABEL 2.4.1

>  <CHROM.1>
-170.01947436,-161.42173239,62.53277403,-27.45306027,-146.74812307,123.47089868
-117.20106963,147.32483805,153.07219631,-48.15760505,21.02672437,-179.56297160
65.62329179,-87.56841162,-173.90164847,-101.71168059,84.15831459,179.15951202
-53.97242706,75.06166343,-157.91932587,-57.68857862,-174.98318001,15.04634067
169.70903141,93.10086960,-141.05800585,-33.93927121,117.86144501,1.79014983
-177.48781574,-101.71821078,90.62905302,177.30768070,-48.64362752,-36.08499704
61.61429683,1.37075553,2.80147392,-1.91980663,-2.78369951,2.95010538,2.30722255
-0.21317240,-2.86784712

>  <COMPND>
    UNNAMED

>  <MASTER>
        0    0    0    0    0    0    0    0  109    0  109    0

>  <Name>
FB1.pdb

>  <RI>
0

>  <Rbt.Current_Directory>
/home/fc/tossine/F10/p3/1_clust04

>  <Rbt.Executable>
rbdock/0.1.0

>  <Rbt.Library>
librxdock.so/0.1.0

>  <Rbt.Parameter_File>
/cluster/rxdock/data/scripts/dock.prm

>  <Rbt.Receptor>
rx_1.prm

>  <SCORE>
52.6117

>  <SCORE.INTER>
29.181

>  <SCORE.INTER.CONST>
1

>  <SCORE.INTER.POLAR>
0

>  <SCORE.INTER.REPUL>
0.688573

>  <SCORE.INTER.ROT>
32

>  <SCORE.INTER.VDW>
-11.6618

>  <SCORE.INTER.norm>
0.583621

>  <SCORE.INTRA>
21.7405

>  <SCORE.INTRA.DIHEDRAL>
40.9251

>  <SCORE.INTRA.DIHEDRAL.0>
47.3121

>  <SCORE.INTRA.POLAR>
0.511258

>  <SCORE.INTRA.POLAR.0>
-1.47808

>  <SCORE.INTRA.REPUL>
0

>  <SCORE.INTRA.REPUL.0>
0

>  <SCORE.INTRA.VDW>
-0.46031

>  <SCORE.INTRA.VDW.0>
-2.78316

>  <SCORE.INTRA.norm>
0.43481

>  <SCORE.RESTR>
1.69009

>  <SCORE.RESTR.CAVITY>
1.69009

>  <SCORE.RESTR.norm>
0.0338018

>  <SCORE.SYSTEM>
0

>  <SCORE.SYSTEM.CONST>
0

>  <SCORE.SYSTEM.DIHEDRAL>
0

>  <SCORE.SYSTEM.norm>
0

>  <SCORE.heavy>
50

>  <SCORE.norm>
1.05223

$$$$
