FB1.pdb
  RxDock  10092021073D
librxdock.so/0.1.0
 59 58  0  0  0  0  0  0  0  0999 V2000
   -0.1082    0.8613    0.6299 C   0  0  0  0  0  0
    1.0996    0.9969    1.5543 C   0  0  0  0  0  0
    0.6834    1.3941    2.9802 C   0  0  0  0  0  0
    0.5994    0.1939    3.9560 C   0  0  0  0  0  0
   -0.3283   -0.9793    3.4832 C   0  0  0  0  0  0
   -0.0498   -2.2092    4.3778 C   0  0  0  0  0  0
   -1.8713   -0.6092    3.4917 C   0  0  0  0  0  0
   -2.8830   -1.7019    2.9011 C   0  0  0  0  0  0
   -2.6196   -3.2697    2.8688 C   0  0  0  0  0  0
   -3.2963   -4.0664    1.5926 C   0  0  0  0  0  0
   -2.8835   -3.3571    0.3039 C   0  0  0  0  0  0
   -2.9619   -5.6220    1.4777 C   0  0  0  0  0  0
   -2.7409   -6.5992    2.7485 C   0  0  0  0  0  0
   -1.3718   -6.6972    3.5048 C   0  0  0  0  0  0
   -0.0354   -6.8169    2.6394 C   0  0  0  0  0  0
    0.1178   -7.7349    1.3634 C   0  0  0  0  0  0
   -0.8123   -7.5084    0.1423 C   0  0  0  0  0  0
   -1.6169   -8.7634   -0.3742 C   0  0  0  0  0  0
   -2.1805   -9.6992    0.7025 C   0  0  0  0  0  0
   -1.6668  -11.1663    0.7465 C   0  0  0  0  0  0
   -2.2180  -12.2281   -0.2506 C   0  0  0  0  0  0
   -3.6903  -12.5891   -0.1105 C   0  0  0  0  0  0
   -1.8956  -11.8594   -1.6422 N   0  0  0  0  0  0
   -0.2510  -11.0693    0.4468 O   0  0  0  0  0  0
   -2.7022   -8.2913   -1.1798 O   0  0  0  0  0  0
   -3.6822   -6.1421    3.7342 O   0  0  0  0  0  0
   -4.1186   -1.5600    3.6531 O   0  0  0  0  0  0
   -5.2673   -1.9260    3.0269 C   0  0  0  0  0  0
   -5.3668   -2.3259    1.8826 O   0  0  0  0  0  0
   -6.3947   -1.8520    4.0193 C   0  0  0  0  0  0
   -7.5160   -0.9019    3.5692 C   0  0  0  0  0  0
   -8.1919   -1.3622    2.2712 C   0  0  0  0  0  0
   -8.3317   -2.8663    2.2332 C   0  0  0  0  0  0
   -7.6100   -3.5979    1.5642 O   0  0  0  0  0  0
   -9.3246   -3.3304    3.0062 O   0  0  0  0  0  0
   -8.5373   -0.8819    4.7148 C   0  0  0  0  0  0
   -9.6760   -1.3095    4.6007 O   0  0  0  0  0  0
   -8.0927   -0.3097    5.8421 O   0  0  0  0  0  0
   -2.2980   -0.1229    4.8264 O   0  0  0  0  0  0
   -2.8843    1.1287    4.9153 C   0  0  0  0  0  0
   -3.5373    1.5253    5.8717 O   0  0  0  0  0  0
   -2.6259    1.9844    3.6682 C   0  0  0  0  0  0
   -3.5732    3.2098    3.4794 C   0  0  0  0  0  0
   -5.0857    2.9446    3.3686 C   0  0  0  0  0  0
   -5.7787    3.8852    2.4255 C   0  0  0  0  0  0
   -6.1807    3.6044    1.3048 O   0  0  0  0  0  0
   -5.9421    5.1095    2.9497 O   0  0  0  0  0  0
   -3.3838    4.3273    4.5127 C   0  0  0  0  0  0
   -4.2906    5.0486    4.8789 O   0  0  0  0  0  0
   -2.1595    4.3937    5.0765 O   0  0  0  0  0  0
   -2.6487  -11.2852   -2.0187 H   0  0  0  0  0  0
   -1.8996  -12.7070   -2.2140 H   0  0  0  0  0  0
   -0.2163  -10.7767   -0.4884 H   0  0  0  0  0  0
   -3.2765   -7.7358   -0.6212 H   0  0  0  0  0  0
   -3.3861   -5.2729    4.0525 H   0  0  0  0  0  0
   -9.4248   -4.3016    3.0173 H   0  0  0  0  0  0
   -8.7658   -0.2502    6.5648 H   0  0  0  0  0  0
   -5.5932    5.0724    3.8652 H   0  0  0  0  0  0
   -2.0195    5.1504    5.6881 H   0  0  0  0  0  0
  1  2  1  0  0  0
  2  3  1  0  0  0
  3  4  1  0  0  0
  4  5  1  0  0  0
  5  6  1  0  0  0
  5  7  1  0  0  0
  7  8  1  0  0  0
  7 39  1  0  0  0
  8  9  1  0  0  0
  8 27  1  0  0  0
  9 10  1  0  0  0
 10 11  1  0  0  0
 10 12  1  0  0  0
 12 13  1  0  0  0
 13 14  1  0  0  0
 13 26  1  0  0  0
 14 15  1  0  0  0
 15 16  1  0  0  0
 16 17  1  0  0  0
 17 18  1  0  0  0
 18 19  1  0  0  0
 18 25  1  0  0  0
 19 20  1  0  0  0
 20 21  1  0  0  0
 20 24  1  0  0  0
 21 22  1  0  0  0
 21 23  1  0  0  0
 23 51  1  0  0  0
 23 52  1  0  0  0
 24 53  1  0  0  0
 25 54  1  0  0  0
 26 55  1  0  0  0
 27 28  1  0  0  0
 28 29  2  0  0  0
 28 30  1  0  0  0
 30 31  1  0  0  0
 31 32  1  0  0  0
 31 36  1  0  0  0
 32 33  1  0  0  0
 33 34  2  0  0  0
 33 35  1  0  0  0
 35 56  1  0  0  0
 36 37  2  0  0  0
 36 38  1  0  0  0
 38 57  1  0  0  0
 39 40  1  0  0  0
 40 41  2  0  0  0
 40 42  1  0  0  0
 42 43  1  0  0  0
 43 44  1  0  0  0
 43 48  1  0  0  0
 44 45  1  0  0  0
 45 46  2  0  0  0
 45 47  1  0  0  0
 47 58  1  0  0  0
 48 49  2  0  0  0
 48 50  1  0  0  0
 50 59  1  0  0  0
M  END
>  <AUTHOR>
    GENERATED BY OPEN BABEL 2.4.1

>  <CHROM.1>
98.23080585,-54.67796848,166.93486578,174.73333754,26.61755111,123.35661733
-148.22680648,152.77932987,51.84955571,33.58703723,-82.49367870,-45.55572681
-69.56761962,-42.60434592,59.65423112,-125.95749193,39.43888921,-117.35464674
-61.10945449,-79.02828982,-65.54581288,-67.34496120,-89.81612411,-2.24158934
121.97111616,62.77057893,37.98345720,-115.03798081,-103.52967299,-178.62992766
176.73308924,163.08416538,162.32766892,-59.21816237,-144.87763458,-149.35200887
105.55034890,-2.62693930,175.64691240,-3.54374117,-2.62202886,2.59513145
-1.77209925,-0.08004392,-2.88042249

>  <COMPND>
    UNNAMED

>  <MASTER>
        0    0    0    0    0    0    0    0  109    0  109    0

>  <Name>
FB1.pdb

>  <RI>
0

>  <Rbt.Current_Directory>
/home/fc/tossine/F10/p3/1_clust04

>  <Rbt.Executable>
rbdock/0.1.0

>  <Rbt.Library>
librxdock.so/0.1.0

>  <Rbt.Parameter_File>
/cluster/rxdock/data/scripts/dock.prm

>  <Rbt.Receptor>
rx_3.prm

>  <SCORE>
7.60907

>  <SCORE.INTER>
-9.13277

>  <SCORE.INTER.CONST>
1

>  <SCORE.INTER.POLAR>
-3.20185

>  <SCORE.INTER.REPUL>
0.72312

>  <SCORE.INTER.ROT>
32

>  <SCORE.INTER.VDW>
-39.2621

>  <SCORE.INTER.norm>
-0.182655

>  <SCORE.INTRA>
15.1222

>  <SCORE.INTRA.DIHEDRAL>
15.0623

>  <SCORE.INTRA.DIHEDRAL.0>
47.3121

>  <SCORE.INTRA.POLAR>
0.680739

>  <SCORE.INTRA.POLAR.0>
-1.47808

>  <SCORE.INTRA.REPUL>
0

>  <SCORE.INTRA.REPUL.0>
0

>  <SCORE.INTRA.VDW>
5.27653

>  <SCORE.INTRA.VDW.0>
-2.78316

>  <SCORE.INTRA.norm>
0.302444

>  <SCORE.RESTR>
1.61962

>  <SCORE.RESTR.CAVITY>
1.61962

>  <SCORE.RESTR.norm>
0.0323924

>  <SCORE.SYSTEM>
0

>  <SCORE.SYSTEM.CONST>
0

>  <SCORE.SYSTEM.DIHEDRAL>
0

>  <SCORE.SYSTEM.norm>
0

>  <SCORE.heavy>
50

>  <SCORE.norm>
0.152181

$$$$
