FB1.pdb
  RxDock  10092019063D
librxdock.so/0.1.0
 59 58  0  0  0  0  0  0  0  0999 V2000
   -6.1404   -2.8341    2.6123 C   0  0  0  0  0  0
   -5.7678   -4.1935    3.1992 C   0  0  0  0  0  0
   -4.8335   -4.9802    2.2652 C   0  0  0  0  0  0
   -3.4954   -4.2551    1.9762 C   0  0  0  0  0  0
   -2.5447   -4.9960    0.9724 C   0  0  0  0  0  0
   -1.9711   -3.9522   -0.0135 C   0  0  0  0  0  0
   -1.3797   -5.8052    1.6835 C   0  0  0  0  0  0
   -1.3479   -5.7752    3.2849 C   0  0  0  0  0  0
   -1.8073   -4.5486    4.1863 C   0  0  0  0  0  0
   -0.6011   -3.8215    5.0454 C   0  0  0  0  0  0
    0.6983   -3.9370    4.2502 C   0  0  0  0  0  0
   -0.8465   -2.2983    5.4509 C   0  0  0  0  0  0
   -1.3824   -1.1624    4.4304 C   0  0  0  0  0  0
   -0.7090    0.2480    4.3145 C   0  0  0  0  0  0
   -1.4270    1.4899    5.0153 C   0  0  0  0  0  0
   -1.1261    3.0014    4.6695 C   0  0  0  0  0  0
    0.1991    3.6472    5.1534 C   0  0  0  0  0  0
    0.6137    5.0059    4.4669 C   0  0  0  0  0  0
   -0.2640    6.2230    4.7844 C   0  0  0  0  0  0
   -0.4448    6.6335    6.2734 C   0  0  0  0  0  0
    0.5159    7.6677    6.9314 C   0  0  0  0  0  0
    1.7294    7.1005    7.6547 C   0  0  0  0  0  0
    0.9171    8.7038    5.9609 N   0  0  0  0  0  0
   -1.7559    7.2514    6.3279 O   0  0  0  0  0  0
    1.9600    5.3030    4.8528 O   0  0  0  0  0  0
   -1.2531   -1.7485    3.1241 O   0  0  0  0  0  0
   -2.1816   -6.8799    3.7286 O   0  0  0  0  0  0
   -1.5658   -8.0728    3.9364 C   0  0  0  0  0  0
   -0.7906   -8.6239    3.1783 O   0  0  0  0  0  0
   -1.9226   -8.5590    5.3140 C   0  0  0  0  0  0
   -3.3304   -9.1726    5.3773 C   0  0  0  0  0  0
   -4.2835   -8.5675    4.3386 C   0  0  0  0  0  0
   -5.5836   -9.3353    4.2792 C   0  0  0  0  0  0
   -6.1018   -9.8682    5.2545 O   0  0  0  0  0  0
   -6.1230   -9.3786    3.0520 O   0  0  0  0  0  0
   -3.1486  -10.6735    5.1119 C   0  0  0  0  0  0
   -3.8916  -11.3173    4.3867 O   0  0  0  0  0  0
   -2.1330  -11.2346    5.7823 O   0  0  0  0  0  0
   -1.2865   -7.1872    1.1531 O   0  0  0  0  0  0
   -1.9396   -7.4838   -0.0316 C   0  0  0  0  0  0
   -1.3803   -7.7526   -1.0867 O   0  0  0  0  0  0
   -3.4662   -7.4410    0.1168 C   0  0  0  0  0  0
   -4.1051   -8.6342    0.8930 C   0  0  0  0  0  0
   -5.4691   -9.1624    0.4124 C   0  0  0  0  0  0
   -6.5940   -8.2019    0.6703 C   0  0  0  0  0  0
   -6.5150   -7.1684    1.3201 O   0  0  0  0  0  0
   -7.7392   -8.5837    0.0846 O   0  0  0  0  0  0
   -3.1844   -9.8486    1.0657 C   0  0  0  0  0  0
   -2.6351  -10.1167    2.1160 O   0  0  0  0  0  0
   -3.1039  -10.6710   -0.0013 O   0  0  0  0  0  0
    1.7653    8.4030    5.4827 H   0  0  0  0  0  0
    1.1887    9.5450    6.4748 H   0  0  0  0  0  0
   -1.7473    7.7756    7.1564 H   0  0  0  0  0  0
    2.2318    6.1234    4.4015 H   0  0  0  0  0  0
   -0.3065   -1.8751    2.9437 H   0  0  0  0  0  0
   -6.8796   -9.9875    2.9507 H   0  0  0  0  0  0
   -1.8050  -10.7033    6.5497 H   0  0  0  0  0  0
   -8.3266   -8.9074    0.7997 H   0  0  0  0  0  0
   -3.5081  -10.3263   -0.8283 H   0  0  0  0  0  0
  1  2  1  0  0  0
  2  3  1  0  0  0
  3  4  1  0  0  0
  4  5  1  0  0  0
  5  6  1  0  0  0
  5  7  1  0  0  0
  7  8  1  0  0  0
  7 39  1  0  0  0
  8  9  1  0  0  0
  8 27  1  0  0  0
  9 10  1  0  0  0
 10 11  1  0  0  0
 10 12  1  0  0  0
 12 13  1  0  0  0
 13 14  1  0  0  0
 13 26  1  0  0  0
 14 15  1  0  0  0
 15 16  1  0  0  0
 16 17  1  0  0  0
 17 18  1  0  0  0
 18 19  1  0  0  0
 18 25  1  0  0  0
 19 20  1  0  0  0
 20 21  1  0  0  0
 20 24  1  0  0  0
 21 22  1  0  0  0
 21 23  1  0  0  0
 23 51  1  0  0  0
 23 52  1  0  0  0
 24 53  1  0  0  0
 25 54  1  0  0  0
 26 55  1  0  0  0
 27 28  1  0  0  0
 28 29  2  0  0  0
 28 30  1  0  0  0
 30 31  1  0  0  0
 31 32  1  0  0  0
 31 36  1  0  0  0
 32 33  1  0  0  0
 33 34  2  0  0  0
 33 35  1  0  0  0
 35 56  1  0  0  0
 36 37  2  0  0  0
 36 38  1  0  0  0
 38 57  1  0  0  0
 39 40  1  0  0  0
 40 41  2  0  0  0
 40 42  1  0  0  0
 42 43  1  0  0  0
 43 44  1  0  0  0
 43 48  1  0  0  0
 44 45  1  0  0  0
 45 46  2  0  0  0
 45 47  1  0  0  0
 47 58  1  0  0  0
 48 49  2  0  0  0
 48 50  1  0  0  0
 50 59  1  0  0  0
M  END
>  <AUTHOR>
    GENERATED BY OPEN BABEL 2.4.1

>  <CHROM.1>
60.05052428,-177.21942559,136.36216624,0.92320157,-32.90820075,15.02080261
-113.83328636,91.24020628,31.30845940,-46.84239235,-132.67563622,-102.73728275
-65.81911778,-162.05884999,-73.80204486,164.24648688,68.64762828,57.00201131
177.74308515,91.54793143,-92.80974557,-161.04027273,-90.14957360,-48.07086248
78.14448615,-28.71928346,171.08808591,-137.39789087,33.63872497,170.27649948
17.40661038,111.99217529,-73.69789511,-143.31030587,-69.80876706,104.23364015
-7.86247394,106.62442607,10.66883918,-2.42406565,-4.11157788,3.38190988,1.17089030
-0.81955924,-0.08184118

>  <COMPND>
    UNNAMED

>  <MASTER>
        0    0    0    0    0    0    0    0  109    0  109    0

>  <Name>
FB1.pdb

>  <RI>
0

>  <Rbt.Current_Directory>
/home/fc/tossine/F10/p3/1_clust04

>  <Rbt.Executable>
rbdock/0.1.0

>  <Rbt.Library>
librxdock.so/0.1.0

>  <Rbt.Parameter_File>
/cluster/rxdock/data/scripts/dock.prm

>  <Rbt.Receptor>
rx_1.prm

>  <SCORE>
58.1686

>  <SCORE.INTER>
2.64362

>  <SCORE.INTER.CONST>
1

>  <SCORE.INTER.POLAR>
-3.36519

>  <SCORE.INTER.REPUL>
0.214653

>  <SCORE.INTER.ROT>
32

>  <SCORE.INTER.VDW>
-24.388

>  <SCORE.INTER.norm>
0.0528724

>  <SCORE.INTRA>
51.4302

>  <SCORE.INTRA.DIHEDRAL>
81.3975

>  <SCORE.INTRA.DIHEDRAL.0>
47.3121

>  <SCORE.INTRA.POLAR>
1.47808

>  <SCORE.INTRA.POLAR.0>
-1.47808

>  <SCORE.INTRA.REPUL>
0.000169537

>  <SCORE.INTRA.REPUL.0>
0

>  <SCORE.INTRA.VDW>
5.70515

>  <SCORE.INTRA.VDW.0>
-2.78316

>  <SCORE.INTRA.norm>
1.0286

>  <SCORE.RESTR>
4.09476

>  <SCORE.RESTR.CAVITY>
4.09476

>  <SCORE.RESTR.norm>
0.0818953

>  <SCORE.SYSTEM>
0

>  <SCORE.SYSTEM.CONST>
0

>  <SCORE.SYSTEM.DIHEDRAL>
0

>  <SCORE.SYSTEM.norm>
0

>  <SCORE.heavy>
50

>  <SCORE.norm>
1.16337

$$$$
