FB1.pdb
  RxDock  10092019073D
librxdock.so/0.1.0
 59 58  0  0  0  0  0  0  0  0999 V2000
   -6.8995  -11.5596    6.4524 C   0  0  0  0  0  0
   -6.8534  -10.6617    5.2184 C   0  0  0  0  0  0
   -5.4420  -10.1033    4.9729 C   0  0  0  0  0  0
   -5.3287   -9.2574    3.6801 C   0  0  0  0  0  0
   -4.1110   -8.2695    3.6405 C   0  0  0  0  0  0
   -2.8097   -9.1039    3.6081 C   0  0  0  0  0  0
   -4.1618   -7.2501    2.4255 C   0  0  0  0  0  0
   -3.2438   -5.9420    2.5368 C   0  0  0  0  0  0
   -1.8696   -5.7204    1.7682 C   0  0  0  0  0  0
   -0.7204   -4.8929    2.6143 C   0  0  0  0  0  0
    0.4491   -4.5930    1.6782 C   0  0  0  0  0  0
   -1.2008   -3.5448    3.3191 C   0  0  0  0  0  0
   -0.3176   -2.7179    4.3937 C   0  0  0  0  0  0
    0.8987   -1.8243    3.9715 C   0  0  0  0  0  0
    0.6070   -0.4887    3.1468 C   0  0  0  0  0  0
   -0.2283    0.7325    3.6996 C   0  0  0  0  0  0
   -0.2244    1.0351    5.2214 C   0  0  0  0  0  0
   -0.3485    2.5514    5.6396 C   0  0  0  0  0  0
    0.8538    3.4464    5.3141 C   0  0  0  0  0  0
    0.6420    4.6404    4.3406 C   0  0  0  0  0  0
    0.3634    6.0704    4.8909 C   0  0  0  0  0  0
   -0.0296    7.1259    3.8667 C   0  0  0  0  0  0
   -0.6066    6.0264    6.0016 N   0  0  0  0  0  0
    1.8952    4.7533    3.6192 O   0  0  0  0  0  0
   -1.5067    3.0937    4.9959 O   0  0  0  0  0  0
   -1.2461   -1.8164    5.0196 O   0  0  0  0  0  0
   -4.0747   -4.8256    2.1176 O   0  0  0  0  0  0
   -5.2682   -4.6740    2.7482 C   0  0  0  0  0  0
   -5.6011   -5.1984    3.7940 O   0  0  0  0  0  0
   -6.0828   -3.6634    1.9889 C   0  0  0  0  0  0
   -5.8367   -2.2247    2.4707 C   0  0  0  0  0  0
   -6.3978   -1.9704    3.8757 C   0  0  0  0  0  0
   -7.9088   -1.9735    3.8680 C   0  0  0  0  0  0
   -8.5816   -2.4791    2.9761 O   0  0  0  0  0  0
   -8.4498   -1.3689    4.9360 O   0  0  0  0  0  0
   -4.3136   -2.0346    2.4710 C   0  0  0  0  0  0
   -3.5995   -2.3701    1.5384 O   0  0  0  0  0  0
   -3.8216   -1.5130    3.6032 O   0  0  0  0  0  0
   -3.9750   -7.9499    1.1312 O   0  0  0  0  0  0
   -5.0569   -8.0467    0.2721 C   0  0  0  0  0  0
   -4.9739   -8.1146   -0.9473 O   0  0  0  0  0  0
   -6.3967   -8.0610    1.0198 C   0  0  0  0  0  0
   -7.6184   -8.5966    0.2104 C   0  0  0  0  0  0
   -8.1167  -10.0220    0.5114 C   0  0  0  0  0  0
   -9.0279  -10.0853    1.7031 C   0  0  0  0  0  0
  -10.2376   -9.9037    1.6868 O   0  0  0  0  0  0
   -8.3734  -10.3902    2.8340 O   0  0  0  0  0  0
   -8.8449   -7.6759    0.2232 C   0  0  0  0  0  0
   -9.4914   -7.4235   -0.7743 O   0  0  0  0  0  0
   -9.2312   -7.2422    1.4414 O   0  0  0  0  0  0
   -0.2675    5.3836    6.7159 H   0  0  0  0  0  0
   -1.4747    5.6072    5.6607 H   0  0  0  0  0  0
    1.7312    5.4480    2.9470 H   0  0  0  0  0  0
   -1.3200    3.1628    4.0415 H   0  0  0  0  0  0
   -0.8370   -1.4819    5.8352 H   0  0  0  0  0  0
   -9.4247   -1.3129    4.9337 H   0  0  0  0  0  0
   -2.8357   -1.5491    3.6767 H   0  0  0  0  0  0
   -7.4328  -10.1558    2.6866 H   0  0  0  0  0  0
  -10.1535   -6.9066    1.4944 H   0  0  0  0  0  0
  1  2  1  0  0  0
  2  3  1  0  0  0
  3  4  1  0  0  0
  4  5  1  0  0  0
  5  6  1  0  0  0
  5  7  1  0  0  0
  7  8  1  0  0  0
  7 39  1  0  0  0
  8  9  1  0  0  0
  8 27  1  0  0  0
  9 10  1  0  0  0
 10 11  1  0  0  0
 10 12  1  0  0  0
 12 13  1  0  0  0
 13 14  1  0  0  0
 13 26  1  0  0  0
 14 15  1  0  0  0
 15 16  1  0  0  0
 16 17  1  0  0  0
 17 18  1  0  0  0
 18 19  1  0  0  0
 18 25  1  0  0  0
 19 20  1  0  0  0
 20 21  1  0  0  0
 20 24  1  0  0  0
 21 22  1  0  0  0
 21 23  1  0  0  0
 23 51  1  0  0  0
 23 52  1  0  0  0
 24 53  1  0  0  0
 25 54  1  0  0  0
 26 55  1  0  0  0
 27 28  1  0  0  0
 28 29  2  0  0  0
 28 30  1  0  0  0
 30 31  1  0  0  0
 31 32  1  0  0  0
 31 36  1  0  0  0
 32 33  1  0  0  0
 33 34  2  0  0  0
 33 35  1  0  0  0
 35 56  1  0  0  0
 36 37  2  0  0  0
 36 38  1  0  0  0
 38 57  1  0  0  0
 39 40  1  0  0  0
 40 41  2  0  0  0
 40 42  1  0  0  0
 42 43  1  0  0  0
 43 44  1  0  0  0
 43 48  1  0  0  0
 44 45  1  0  0  0
 45 46  2  0  0  0
 45 47  1  0  0  0
 47 58  1  0  0  0
 48 49  2  0  0  0
 48 50  1  0  0  0
 50 59  1  0  0  0
M  END
>  <AUTHOR>
    GENERATED BY OPEN BABEL 2.4.1

>  <CHROM.1>
176.39920895,159.18277267,66.15155519,161.82177304,103.58541784,110.21150194
-144.16391614,53.64420105,-172.03925398,169.18703662,75.79053528,68.73870759
164.00562346,62.96516048,30.29365704,147.58352113,-68.76571417,118.16937793
-70.43120740,96.03638527,-171.36945775,174.69880931,54.88859178,15.78182970
-89.20157816,-69.37585580,-69.47573303,46.66076417,19.29284886,176.81170885
168.86281450,151.10672519,-161.98833060,103.27164623,82.53753941,135.56458594
86.33017329,21.88026274,-161.07564744,-4.07072603,-3.87617340,3.04914993
-2.09985095,-0.12275094,0.12228313

>  <COMPND>
    UNNAMED

>  <MASTER>
        0    0    0    0    0    0    0    0  109    0  109    0

>  <Name>
FB1.pdb

>  <RI>
0

>  <Rbt.Current_Directory>
/home/fc/tossine/F10/p3/1_clust04

>  <Rbt.Executable>
rbdock/0.1.0

>  <Rbt.Library>
librxdock.so/0.1.0

>  <Rbt.Parameter_File>
/cluster/rxdock/data/scripts/dock.prm

>  <Rbt.Receptor>
rx_1.prm

>  <SCORE>
26.3595

>  <SCORE.INTER>
2.66715

>  <SCORE.INTER.CONST>
1

>  <SCORE.INTER.POLAR>
-1.092

>  <SCORE.INTER.REPUL>
0.199478

>  <SCORE.INTER.ROT>
32

>  <SCORE.INTER.VDW>
-32.0174

>  <SCORE.INTER.norm>
0.0533431

>  <SCORE.INTRA>
16.1677

>  <SCORE.INTRA.DIHEDRAL>
23.5771

>  <SCORE.INTRA.DIHEDRAL.0>
47.3121

>  <SCORE.INTRA.POLAR>
0.601456

>  <SCORE.INTRA.POLAR.0>
-1.47808

>  <SCORE.INTRA.REPUL>
0

>  <SCORE.INTRA.REPUL.0>
0

>  <SCORE.INTRA.VDW>
2.33422

>  <SCORE.INTRA.VDW.0>
-2.78316

>  <SCORE.INTRA.norm>
0.323355

>  <SCORE.RESTR>
7.52461

>  <SCORE.RESTR.CAVITY>
7.52461

>  <SCORE.RESTR.norm>
0.150492

>  <SCORE.SYSTEM>
0

>  <SCORE.SYSTEM.CONST>
0

>  <SCORE.SYSTEM.DIHEDRAL>
0

>  <SCORE.SYSTEM.norm>
0

>  <SCORE.heavy>
50

>  <SCORE.norm>
0.52719

$$$$
