FB1.pdb
  RxDock  10092019083D
librxdock.so/0.1.0
 59 58  0  0  0  0  0  0  0  0999 V2000
   -2.6048    5.0812    5.1645 C   0  0  0  0  0  0
   -3.9945    5.0345    4.5336 C   0  0  0  0  0  0
   -4.8343    3.8735    5.0914 C   0  0  0  0  0  0
   -4.7407    2.5805    4.2434 C   0  0  0  0  0  0
   -4.8427    1.2451    5.0598 C   0  0  0  0  0  0
   -5.5203    1.5548    6.4147 C   0  0  0  0  0  0
   -5.6128    0.0901    4.2911 C   0  0  0  0  0  0
   -4.7189   -0.9633    3.4803 C   0  0  0  0  0  0
   -3.2136   -1.3424    3.8247 C   0  0  0  0  0  0
   -2.2030   -0.0583    4.0507 C   0  0  0  0  0  0
   -1.2619   -0.3798    5.2104 C   0  0  0  0  0  0
   -1.3513    0.3981    2.7814 C   0  0  0  0  0  0
   -0.3335    1.6562    2.7760 C   0  0  0  0  0  0
    0.6886    1.9149    3.9354 C   0  0  0  0  0  0
    2.0756    1.1244    3.9127 C   0  0  0  0  0  0
    3.1760    1.2925    2.7922 C   0  0  0  0  0  0
    4.6031    1.7575    3.1857 C   0  0  0  0  0  0
    5.5666    0.6560    3.7753 C   0  0  0  0  0  0
    7.0217    1.0808    4.0090 C   0  0  0  0  0  0
    7.5674    2.3063    3.2225 C   0  0  0  0  0  0
    7.4189    2.3830    1.6741 C   0  0  0  0  0  0
    7.5078    1.0642    0.9189 C   0  0  0  0  0  0
    6.1998    3.1242    1.2992 N   0  0  0  0  0  0
    6.8099    3.4349    3.7286 O   0  0  0  0  0  0
    5.0177    0.2094    5.0199 O   0  0  0  0  0  0
    0.4719    1.4748    1.5991 O   0  0  0  0  0  0
   -5.4308   -2.2292    3.5374 O   0  0  0  0  0  0
   -5.1768   -3.1249    2.5482 C   0  0  0  0  0  0
   -4.7069   -2.8748    1.4545 O   0  0  0  0  0  0
   -5.4794   -4.5040    3.0656 C   0  0  0  0  0  0
   -5.0031   -5.6104    2.1108 C   0  0  0  0  0  0
   -3.4853   -5.8251    2.1691 C   0  0  0  0  0  0
   -2.7420   -4.5811    1.7410 C   0  0  0  0  0  0
   -2.4642   -4.3246    0.5744 O   0  0  0  0  0  0
   -2.4134   -3.7767    2.7627 O   0  0  0  0  0  0
   -5.7316   -6.8884    2.5492 C   0  0  0  0  0  0
   -6.5431   -7.4687    1.8442 O   0  0  0  0  0  0
   -5.4410   -7.2912    3.7939 O   0  0  0  0  0  0
   -6.5936   -0.5818    5.1779 O   0  0  0  0  0  0
   -7.7445   -1.1040    4.6116 C   0  0  0  0  0  0
   -7.9741   -1.1415    3.4099 O   0  0  0  0  0  0
   -8.7215   -1.6420    5.6654 C   0  0  0  0  0  0
  -10.2183   -1.7088    5.2300 C   0  0  0  0  0  0
  -10.9816   -0.3828    5.0582 C   0  0  0  0  0  0
  -10.1803    0.6669    4.3438 C   0  0  0  0  0  0
   -9.6322    1.6264    4.8687 O   0  0  0  0  0  0
  -10.0989    0.4404    3.0238 O   0  0  0  0  0  0
  -10.4798   -2.5480    3.9731 C   0  0  0  0  0  0
  -11.5289   -2.5109    3.3609 O   0  0  0  0  0  0
   -9.4253   -3.2588    3.5212 O   0  0  0  0  0  0
    6.3771    3.6475    0.4429 H   0  0  0  0  0  0
    6.0187    3.8362    2.0103 H   0  0  0  0  0  0
    7.3412    4.2204    3.4793 H   0  0  0  0  0  0
    5.5496   -0.5450    5.3337 H   0  0  0  0  0  0
   -0.0687    1.7078    0.8259 H   0  0  0  0  0  0
   -2.7539   -4.0517    3.6356 H   0  0  0  0  0  0
   -5.9832   -8.0539    4.1151 H   0  0  0  0  0  0
  -10.0070    1.3165    2.5931 H   0  0  0  0  0  0
   -8.6017   -3.1702    4.0504 H   0  0  0  0  0  0
  1  2  1  0  0  0
  2  3  1  0  0  0
  3  4  1  0  0  0
  4  5  1  0  0  0
  5  6  1  0  0  0
  5  7  1  0  0  0
  7  8  1  0  0  0
  7 39  1  0  0  0
  8  9  1  0  0  0
  8 27  1  0  0  0
  9 10  1  0  0  0
 10 11  1  0  0  0
 10 12  1  0  0  0
 12 13  1  0  0  0
 13 14  1  0  0  0
 13 26  1  0  0  0
 14 15  1  0  0  0
 15 16  1  0  0  0
 16 17  1  0  0  0
 17 18  1  0  0  0
 18 19  1  0  0  0
 18 25  1  0  0  0
 19 20  1  0  0  0
 20 21  1  0  0  0
 20 24  1  0  0  0
 21 22  1  0  0  0
 21 23  1  0  0  0
 23 51  1  0  0  0
 23 52  1  0  0  0
 24 53  1  0  0  0
 25 54  1  0  0  0
 26 55  1  0  0  0
 27 28  1  0  0  0
 28 29  2  0  0  0
 28 30  1  0  0  0
 30 31  1  0  0  0
 31 32  1  0  0  0
 31 36  1  0  0  0
 32 33  1  0  0  0
 33 34  2  0  0  0
 33 35  1  0  0  0
 35 56  1  0  0  0
 36 37  2  0  0  0
 36 38  1  0  0  0
 38 57  1  0  0  0
 39 40  1  0  0  0
 40 41  2  0  0  0
 40 42  1  0  0  0
 42 43  1  0  0  0
 43 44  1  0  0  0
 43 48  1  0  0  0
 44 45  1  0  0  0
 45 46  2  0  0  0
 45 47  1  0  0  0
 47 58  1  0  0  0
 48 49  2  0  0  0
 48 50  1  0  0  0
 50 59  1  0  0  0
M  END
>  <AUTHOR>
    GENERATED BY OPEN BABEL 2.4.1

>  <CHROM.1>
-93.30482581,147.20678194,20.59913643,95.57387722,26.66601796,149.13944066
-49.25362697,155.68382009,140.54532133,178.27031439,45.04108612,82.82544559
74.83824787,63.93823398,120.92957213,80.06426812,173.11115432,-21.40744547
173.22193171,-51.76955539,-34.25848267,161.20148706,145.47663789,-20.66833467
-170.30509811,76.08194111,-62.13105182,115.32601202,-86.98860128,-4.80394546
173.48325732,5.65755802,156.21281722,-70.39020675,43.17228641,-166.22612037
-103.74454697,150.96825113,0.53600158,-2.96348044,-0.60350985,3.51457343
0.26230384,0.14150304,0.27779013

>  <COMPND>
    UNNAMED

>  <MASTER>
        0    0    0    0    0    0    0    0  109    0  109    0

>  <Name>
FB1.pdb

>  <RI>
0

>  <Rbt.Current_Directory>
/home/fc/tossine/F10/p3/1_clust04

>  <Rbt.Executable>
rbdock/0.1.0

>  <Rbt.Library>
librxdock.so/0.1.0

>  <Rbt.Parameter_File>
/cluster/rxdock/data/scripts/dock.prm

>  <Rbt.Receptor>
rx_1.prm

>  <SCORE>
46.6306

>  <SCORE.INTER>
17.8004

>  <SCORE.INTER.CONST>
1

>  <SCORE.INTER.POLAR>
-2.09714

>  <SCORE.INTER.REPUL>
0.362032

>  <SCORE.INTER.ROT>
32

>  <SCORE.INTER.VDW>
-14.2795

>  <SCORE.INTER.norm>
0.356009

>  <SCORE.INTRA>
27.5156

>  <SCORE.INTRA.DIHEDRAL>
26.5869

>  <SCORE.INTRA.DIHEDRAL.0>
47.3121

>  <SCORE.INTRA.POLAR>
1.42841

>  <SCORE.INTRA.POLAR.0>
-1.47808

>  <SCORE.INTRA.REPUL>
0

>  <SCORE.INTRA.REPUL.0>
0

>  <SCORE.INTRA.VDW>
9.36553

>  <SCORE.INTRA.VDW.0>
-2.78316

>  <SCORE.INTRA.norm>
0.550311

>  <SCORE.RESTR>
1.31457

>  <SCORE.RESTR.CAVITY>
1.31457

>  <SCORE.RESTR.norm>
0.0262914

>  <SCORE.SYSTEM>
0

>  <SCORE.SYSTEM.CONST>
0

>  <SCORE.SYSTEM.DIHEDRAL>
0

>  <SCORE.SYSTEM.norm>
0

>  <SCORE.heavy>
50

>  <SCORE.norm>
0.932612

$$$$
