FB1.pdb
  RxDock  10092020173D
librxdock.so/0.1.0
 59 58  0  0  0  0  0  0  0  0999 V2000
    6.7738    3.1984    1.7009 C   0  0  0  0  0  0
    7.0272    2.4268    2.9939 C   0  0  0  0  0  0
    5.7627    2.3446    3.8650 C   0  0  0  0  0  0
    4.6689    1.4169    3.2798 C   0  0  0  0  0  0
    3.7821    2.0644    2.1596 C   0  0  0  0  0  0
    3.6288    1.0418    1.0100 C   0  0  0  0  0  0
    2.3640    2.5526    2.6778 C   0  0  0  0  0  0
    1.2312    1.4337    2.8541 C   0  0  0  0  0  0
    1.3994    0.0830    3.6760 C   0  0  0  0  0  0
    0.2196   -1.0418    3.4221 C   0  0  0  0  0  0
    0.2222   -1.4219    1.9423 C   0  0  0  0  0  0
    0.3032   -2.3620    4.3136 C   0  0  0  0  0  0
   -0.6053   -3.6792    4.0723 C   0  0  0  0  0  0
   -0.7927   -4.7830    5.1690 C   0  0  0  0  0  0
   -1.7264   -6.0337    4.8328 C   0  0  0  0  0  0
   -3.2555   -6.1296    5.2163 C   0  0  0  0  0  0
   -4.1599   -7.1670    4.4998 C   0  0  0  0  0  0
   -3.9546   -7.3264    2.9436 C   0  0  0  0  0  0
   -2.6311   -7.9579    2.4941 C   0  0  0  0  0  0
   -2.2411   -7.8619    0.9918 C   0  0  0  0  0  0
   -3.2464   -8.2948   -0.1161 C   0  0  0  0  0  0
   -2.6783   -8.4630   -1.5183 C   0  0  0  0  0  0
   -3.9976   -9.4957    0.2961 N   0  0  0  0  0  0
   -2.0134   -6.4482    0.7607 O   0  0  0  0  0  0
   -5.0327   -8.1192    2.4348 O   0  0  0  0  0  0
   -1.9272   -3.1748    3.8179 O   0  0  0  0  0  0
    0.0990    2.0967    3.4793 O   0  0  0  0  0  0
   -1.1387    1.6385    3.1577 C   0  0  0  0  0  0
   -1.6322    1.6189    2.0462 O   0  0  0  0  0  0
   -1.7685    1.0603    4.3948 C   0  0  0  0  0  0
   -2.9215    1.9246    4.9295 C   0  0  0  0  0  0
   -4.2966    1.2928    4.6777 C   0  0  0  0  0  0
   -5.3708    1.9862    5.4830 C   0  0  0  0  0  0
   -5.2321    3.0966    5.9846 O   0  0  0  0  0  0
   -6.4989    1.2698    5.5977 O   0  0  0  0  0  0
   -2.6773    2.0673    6.4381 C   0  0  0  0  0  0
   -2.6048    3.1483    7.0027 O   0  0  0  0  0  0
   -2.4999    0.9055    7.0820 O   0  0  0  0  0  0
    2.4987    3.4004    3.8873 O   0  0  0  0  0  0
    1.4100    4.1581    4.2856 C   0  0  0  0  0  0
    0.2404    3.8456    4.1043 O   0  0  0  0  0  0
    1.8279    5.4545    4.9920 C   0  0  0  0  0  0
    0.7085    6.5295    5.1527 C   0  0  0  0  0  0
    1.0589    7.8337    5.8922 C   0  0  0  0  0  0
   -0.0868    8.8025    5.9477 C   0  0  0  0  0  0
   -0.2944    9.7085    5.1524 O   0  0  0  0  0  0
   -0.9096    8.5656    6.9809 O   0  0  0  0  0  0
    0.0107    6.9238    3.8450 C   0  0  0  0  0  0
    0.5932    6.9937    2.7808 O   0  0  0  0  0  0
   -1.3263    7.0872    3.9282 O   0  0  0  0  0  0
   -4.6609   -9.7428   -0.4371 H   0  0  0  0  0  0
   -4.5759   -9.2576    1.1051 H   0  0  0  0  0  0
   -1.5457   -6.4112   -0.1002 H   0  0  0  0  0  0
   -5.0790   -8.9410    2.9573 H   0  0  0  0  0  0
   -2.4478   -3.8875    3.4110 H   0  0  0  0  0  0
   -7.1730    1.6470    6.1951 H   0  0  0  0  0  0
   -2.4442    0.9866    8.0664 H   0  0  0  0  0  0
   -1.6627    9.1865    6.8888 H   0  0  0  0  0  0
   -1.7299    6.8156    4.7824 H   0  0  0  0  0  0
  1  2  1  0  0  0
  2  3  1  0  0  0
  3  4  1  0  0  0
  4  5  1  0  0  0
  5  6  1  0  0  0
  5  7  1  0  0  0
  7  8  1  0  0  0
  7 39  1  0  0  0
  8  9  1  0  0  0
  8 27  1  0  0  0
  9 10  1  0  0  0
 10 11  1  0  0  0
 10 12  1  0  0  0
 12 13  1  0  0  0
 13 14  1  0  0  0
 13 26  1  0  0  0
 14 15  1  0  0  0
 15 16  1  0  0  0
 16 17  1  0  0  0
 17 18  1  0  0  0
 18 19  1  0  0  0
 18 25  1  0  0  0
 19 20  1  0  0  0
 20 21  1  0  0  0
 20 24  1  0  0  0
 21 22  1  0  0  0
 21 23  1  0  0  0
 23 51  1  0  0  0
 23 52  1  0  0  0
 24 53  1  0  0  0
 25 54  1  0  0  0
 26 55  1  0  0  0
 27 28  1  0  0  0
 28 29  2  0  0  0
 28 30  1  0  0  0
 30 31  1  0  0  0
 31 32  1  0  0  0
 31 36  1  0  0  0
 32 33  1  0  0  0
 33 34  2  0  0  0
 33 35  1  0  0  0
 35 56  1  0  0  0
 36 37  2  0  0  0
 36 38  1  0  0  0
 38 57  1  0  0  0
 39 40  1  0  0  0
 40 41  2  0  0  0
 40 42  1  0  0  0
 42 43  1  0  0  0
 43 44  1  0  0  0
 43 48  1  0  0  0
 44 45  1  0  0  0
 45 46  2  0  0  0
 45 47  1  0  0  0
 47 58  1  0  0  0
 48 49  2  0  0  0
 48 50  1  0  0  0
 50 59  1  0  0  0
M  END
>  <AUTHOR>
    GENERATED BY OPEN BABEL 2.4.1

>  <CHROM.1>
70.66364663,-81.01529439,135.55307480,-79.57298866,52.11125478,165.20582586
-166.75998407,148.18287520,60.43486483,-170.16626663,-162.62949059,179.22542520
163.37347442,-94.84737294,162.11450365,-41.86075931,68.76934009,-167.03560710
-52.84073607,-51.20801050,-166.67891028,165.51626295,178.73252667,-60.57246466
109.33142696,107.14488747,166.74416569,125.14940394,17.52015959,173.41046418
-173.44717366,30.35608494,165.16645671,178.17096569,178.36579826,-35.66270903
-93.72597440,-174.89967218,-8.20749188,-0.69242047,0.35949031,3.73999664
-1.26357756,-0.34900168,-2.84850908

>  <COMPND>
    UNNAMED

>  <MASTER>
        0    0    0    0    0    0    0    0  109    0  109    0

>  <Name>
FB1.pdb

>  <RI>
0

>  <Rbt.Current_Directory>
/home/fc/tossine/F10/p3/1_clust04

>  <Rbt.Executable>
rbdock/0.1.0

>  <Rbt.Library>
librxdock.so/0.1.0

>  <Rbt.Parameter_File>
/cluster/rxdock/data/scripts/dock.prm

>  <Rbt.Receptor>
rx_2.prm

>  <SCORE>
27.8654

>  <SCORE.INTER>
0.165583

>  <SCORE.INTER.CONST>
1

>  <SCORE.INTER.POLAR>
-2.03128

>  <SCORE.INTER.REPUL>
0.069367

>  <SCORE.INTER.ROT>
32

>  <SCORE.INTER.VDW>
-30.6749

>  <SCORE.INTER.norm>
0.00331165

>  <SCORE.INTRA>
26.969

>  <SCORE.INTRA.DIHEDRAL>
22.6112

>  <SCORE.INTRA.DIHEDRAL.0>
47.3121

>  <SCORE.INTRA.POLAR>
0.748717

>  <SCORE.INTRA.POLAR.0>
-1.47808

>  <SCORE.INTRA.REPUL>
0

>  <SCORE.INTRA.REPUL.0>
0

>  <SCORE.INTRA.VDW>
13.1178

>  <SCORE.INTRA.VDW.0>
-2.78316

>  <SCORE.INTRA.norm>
0.53938

>  <SCORE.RESTR>
0.730854

>  <SCORE.RESTR.CAVITY>
0.730854

>  <SCORE.RESTR.norm>
0.0146171

>  <SCORE.SYSTEM>
0

>  <SCORE.SYSTEM.CONST>
0

>  <SCORE.SYSTEM.DIHEDRAL>
0

>  <SCORE.SYSTEM.norm>
0

>  <SCORE.heavy>
50

>  <SCORE.norm>
0.557309

$$$$
