FB1.pdb
  RxDock  10092021543D
librxdock.so/0.1.0
 59 58  0  0  0  0  0  0  0  0999 V2000
   -1.0515    1.7096    5.3319 C   0  0  0  0  0  0
   -2.2918    0.9551    4.8589 C   0  0  0  0  0  0
   -3.4715    1.9060    4.5975 C   0  0  0  0  0  0
   -4.7820    1.1738    4.2154 C   0  0  0  0  0  0
   -5.4263    0.3261    5.3673 C   0  0  0  0  0  0
   -5.7178    1.2679    6.5584 C   0  0  0  0  0  0
   -6.7368   -0.4512    4.9246 C   0  0  0  0  0  0
   -6.6778   -1.2379    3.5303 C   0  0  0  0  0  0
   -6.2015   -2.7441    3.3490 C   0  0  0  0  0  0
   -4.6533   -2.9280    2.8099 C   0  0  0  0  0  0
   -4.6780   -3.0157    1.2848 C   0  0  0  0  0  0
   -3.6127   -1.8076    3.2645 C   0  0  0  0  0  0
   -2.0145   -2.0405    3.3652 C   0  0  0  0  0  0
   -1.3073   -3.2935    2.7440 C   0  0  0  0  0  0
   -0.1430   -3.9977    3.5792 C   0  0  0  0  0  0
    0.5065   -5.3869    3.2012 C   0  0  0  0  0  0
   -0.3539   -6.6764    3.2670 C   0  0  0  0  0  0
   -1.4600   -6.8441    2.1546 C   0  0  0  0  0  0
   -2.8577   -6.3160    2.5012 C   0  0  0  0  0  0
   -4.0083   -6.5506    1.4817 C   0  0  0  0  0  0
   -4.4917   -7.9940    1.1524 C   0  0  0  0  0  0
   -5.2041   -8.7416    2.2708 C   0  0  0  0  0  0
   -5.2927   -8.0100   -0.0864 N   0  0  0  0  0  0
   -5.1602   -5.8940    2.0699 O   0  0  0  0  0  0
   -1.0024   -6.1780    0.9727 O   0  0  0  0  0  0
   -1.4333   -0.9102    2.6937 O   0  0  0  0  0  0
   -8.0297   -1.2214    2.9969 O   0  0  0  0  0  0
   -8.3024   -2.0805    1.9806 C   0  0  0  0  0  0
   -7.5724   -2.3408    1.0432 O   0  0  0  0  0  0
   -9.6246   -2.7412    2.2577 C   0  0  0  0  0  0
  -10.1028   -3.6179    1.0892 C   0  0  0  0  0  0
   -9.0684   -4.6764    0.6857 C   0  0  0  0  0  0
   -9.7397   -5.9693    0.2843 C   0  0  0  0  0  0
  -10.6716   -6.0314   -0.5104 O   0  0  0  0  0  0
   -9.2166   -7.0507    0.8808 O   0  0  0  0  0  0
  -11.3905   -4.2992    1.5725 C   0  0  0  0  0  0
  -12.5042   -3.9585    1.2037 O   0  0  0  0  0  0
  -11.1969   -5.2712    2.4746 O   0  0  0  0  0  0
   -7.2485   -1.3070    6.0226 O   0  0  0  0  0  0
   -8.0389   -0.7238    6.9990 C   0  0  0  0  0  0
   -8.3216    0.4662    7.0471 O   0  0  0  0  0  0
   -8.5343   -1.7422    8.0343 C   0  0  0  0  0  0
   -8.1810   -1.4239    9.5204 C   0  0  0  0  0  0
   -9.0482   -2.0597   10.6222 C   0  0  0  0  0  0
   -8.7673   -1.4990   11.9865 C   0  0  0  0  0  0
   -9.0579   -0.3741   12.3693 O   0  0  0  0  0  0
   -8.1594   -2.3850   12.7902 O   0  0  0  0  0  0
   -6.7154   -1.6763    9.8954 C   0  0  0  0  0  0
   -6.3808   -2.4652   10.7571 O   0  0  0  0  0  0
   -5.8037   -1.0411    9.1296 O   0  0  0  0  0  0
   -6.2067   -8.4147    0.1121 H   0  0  0  0  0  0
   -4.8570   -8.6557   -0.7488 H   0  0  0  0  0  0
   -5.2538   -6.3059    2.9547 H   0  0  0  0  0  0
   -0.4008   -6.7805    0.4977 H   0  0  0  0  0  0
   -1.7020   -0.9440    1.7603 H   0  0  0  0  0  0
   -9.6568   -7.8965    0.6703 H   0  0  0  0  0  0
  -10.6079   -5.0194    3.2286 H   0  0  0  0  0  0
   -7.8381   -1.8838   13.5692 H   0  0  0  0  0  0
   -4.8748   -1.1020    9.4454 H   0  0  0  0  0  0
  1  2  1  0  0  0
  2  3  1  0  0  0
  3  4  1  0  0  0
  4  5  1  0  0  0
  5  6  1  0  0  0
  5  7  1  0  0  0
  7  8  1  0  0  0
  7 39  1  0  0  0
  8  9  1  0  0  0
  8 27  1  0  0  0
  9 10  1  0  0  0
 10 11  1  0  0  0
 10 12  1  0  0  0
 12 13  1  0  0  0
 13 14  1  0  0  0
 13 26  1  0  0  0
 14 15  1  0  0  0
 15 16  1  0  0  0
 16 17  1  0  0  0
 17 18  1  0  0  0
 18 19  1  0  0  0
 18 25  1  0  0  0
 19 20  1  0  0  0
 20 21  1  0  0  0
 20 24  1  0  0  0
 21 22  1  0  0  0
 21 23  1  0  0  0
 23 51  1  0  0  0
 23 52  1  0  0  0
 24 53  1  0  0  0
 25 54  1  0  0  0
 26 55  1  0  0  0
 27 28  1  0  0  0
 28 29  2  0  0  0
 28 30  1  0  0  0
 30 31  1  0  0  0
 31 32  1  0  0  0
 31 36  1  0  0  0
 32 33  1  0  0  0
 33 34  2  0  0  0
 33 35  1  0  0  0
 35 56  1  0  0  0
 36 37  2  0  0  0
 36 38  1  0  0  0
 38 57  1  0  0  0
 39 40  1  0  0  0
 40 41  2  0  0  0
 40 42  1  0  0  0
 42 43  1  0  0  0
 43 44  1  0  0  0
 43 48  1  0  0  0
 44 45  1  0  0  0
 45 46  2  0  0  0
 45 47  1  0  0  0
 47 58  1  0  0  0
 48 49  2  0  0  0
 48 50  1  0  0  0
 50 59  1  0  0  0
M  END
>  <AUTHOR>
    GENERATED BY OPEN BABEL 2.4.1

>  <CHROM.1>
-175.77541154,67.96264497,58.41288513,45.82103188,89.03839850,82.75564460
-100.08932968,-165.28641972,-91.91950244,155.33739719,13.05922393,-139.13566633
-63.67906176,170.02303573,-65.97242034,71.53759490,-92.19249991,-175.56931378
82.39401210,64.62202000,68.12216687,-56.16220279,-123.58983616,-40.48219674
173.57958512,55.28874182,143.21356552,104.67372354,49.31098951,177.39883800
49.03491728,-2.14296885,123.75562041,157.53051015,-170.04338746,-119.79030585
70.48732279,167.57370108,171.84560360,-6.03028740,-3.01080647,4.25245052
-1.81018818,-0.08917861,-2.15765093

>  <COMPND>
    UNNAMED

>  <MASTER>
        0    0    0    0    0    0    0    0  109    0  109    0

>  <Name>
FB1.pdb

>  <RI>
0

>  <Rbt.Current_Directory>
/home/fc/tossine/F10/p3/1_clust04

>  <Rbt.Executable>
rbdock/0.1.0

>  <Rbt.Library>
librxdock.so/0.1.0

>  <Rbt.Parameter_File>
/cluster/rxdock/data/scripts/dock.prm

>  <Rbt.Receptor>
rx_4.prm

>  <SCORE>
57.441

>  <SCORE.INTER>
25.9811

>  <SCORE.INTER.CONST>
1

>  <SCORE.INTER.POLAR>
-0.896096

>  <SCORE.INTER.REPUL>
0.608508

>  <SCORE.INTER.ROT>
32

>  <SCORE.INTER.VDW>
-11.4147

>  <SCORE.INTER.norm>
0.519622

>  <SCORE.INTRA>
27.4466

>  <SCORE.INTRA.DIHEDRAL>
33.6486

>  <SCORE.INTRA.DIHEDRAL.0>
47.3121

>  <SCORE.INTRA.POLAR>
1.47808

>  <SCORE.INTRA.POLAR.0>
-1.47808

>  <SCORE.INTRA.REPUL>
0.000286676

>  <SCORE.INTRA.REPUL.0>
0

>  <SCORE.INTRA.VDW>
5.59537

>  <SCORE.INTRA.VDW.0>
-2.78316

>  <SCORE.INTRA.norm>
0.548932

>  <SCORE.RESTR>
4.01336

>  <SCORE.RESTR.CAVITY>
4.01336

>  <SCORE.RESTR.norm>
0.0802673

>  <SCORE.SYSTEM>
0

>  <SCORE.SYSTEM.CONST>
0

>  <SCORE.SYSTEM.DIHEDRAL>
0

>  <SCORE.SYSTEM.norm>
0

>  <SCORE.heavy>
50

>  <SCORE.norm>
1.14882

$$$$
