FB1.pdb
  RxDock  10092020073D
librxdock.so/0.1.0
 59 58  0  0  0  0  0  0  0  0999 V2000
   -8.3557   -0.9929    4.5487 C   0  0  0  0  0  0
   -6.8784   -0.6095    4.5904 C   0  0  0  0  0  0
   -6.6881    0.9026    4.7946 C   0  0  0  0  0  0
   -5.2336    1.2995    5.1505 C   0  0  0  0  0  0
   -4.9943    2.8386    5.3357 C   0  0  0  0  0  0
   -4.5722    3.0914    6.8015 C   0  0  0  0  0  0
   -3.9277    3.4396    4.3263 C   0  0  0  0  0  0
   -2.3839    3.1620    4.6516 C   0  0  0  0  0  0
   -1.4504    4.1026    5.5303 C   0  0  0  0  0  0
   -2.0611    5.6040    5.8376 C   0  0  0  0  0  0
   -2.4787    5.6666    7.3059 C   0  0  0  0  0  0
   -1.1038    6.8348    5.5008 C   0  0  0  0  0  0
    0.4697    6.6917    5.1513 C   0  0  0  0  0  0
    1.4876    6.0050    6.1252 C   0  0  0  0  0  0
    1.5097    6.4738    7.6512 C   0  0  0  0  0  0
    0.2423    6.4930    8.5935 C   0  0  0  0  0  0
    0.4316    6.6367   10.1268 C   0  0  0  0  0  0
    1.1504    5.4413   10.8640 C   0  0  0  0  0  0
    0.6777    4.0305   10.4915 C   0  0  0  0  0  0
    1.2517    2.8257   11.2898 C   0  0  0  0  0  0
    0.3562    1.5941   11.6164 C   0  0  0  0  0  0
   -0.5544    1.1033   10.4996 C   0  0  0  0  0  0
    1.1641    0.4873   12.1629 N   0  0  0  0  0  0
    2.3164    2.3047   10.4539 O   0  0  0  0  0  0
    2.5535    5.5364   10.5954 O   0  0  0  0  0  0
    0.5111    5.9045    3.9491 O   0  0  0  0  0  0
   -2.3357    1.8756    5.3263 O   0  0  0  0  0  0
   -1.9661    0.8016    4.5812 C   0  0  0  0  0  0
   -2.7106   -0.0339    4.1047 O   0  0  0  0  0  0
   -0.4813    0.8689    4.3530 C   0  0  0  0  0  0
   -0.1178    1.5685    3.0335 C   0  0  0  0  0  0
    1.3842    1.5053    2.7281 C   0  0  0  0  0  0
    2.1959    2.0886    3.8613 C   0  0  0  0  0  0
    2.9138    1.4189    4.5961 O   0  0  0  0  0  0
    2.0586    3.4166    3.9887 O   0  0  0  0  0  0
   -0.9078    0.8393    1.9380 C   0  0  0  0  0  0
   -1.6581    1.4127    1.1629 O   0  0  0  0  0  0
   -0.7454   -0.4909    1.9314 O   0  0  0  0  0  0
   -4.2681    3.1006    2.9231 O   0  0  0  0  0  0
   -5.3753    3.7032    2.3495 C   0  0  0  0  0  0
   -6.2139    3.1204    1.6745 O   0  0  0  0  0  0
   -5.4453    5.2056    2.6532 C   0  0  0  0  0  0
   -6.4437    6.0274    1.7800 C   0  0  0  0  0  0
   -6.3843    7.5635    1.8654 C   0  0  0  0  0  0
   -5.0212    8.1155    1.5623 C   0  0  0  0  0  0
   -4.0244    7.4543    1.3058 O   0  0  0  0  0  0
   -4.9952    9.4569    1.5800 O   0  0  0  0  0  0
   -6.4444    5.6561    0.2920 C   0  0  0  0  0  0
   -7.1062    4.7428   -0.1604 O   0  0  0  0  0  0
   -5.7401    6.4808   -0.5113 O   0  0  0  0  0  0
    1.7446    0.0992   11.4207 H   0  0  0  0  0  0
    0.5362   -0.2738   12.4314 H   0  0  0  0  0  0
    2.7444    1.6135   11.0020 H   0  0  0  0  0  0
    2.6897    5.4053    9.6390 H   0  0  0  0  0  0
    0.1576    6.4454    3.2232 H   0  0  0  0  0  0
    1.4859    3.8421    3.3219 H   0  0  0  0  0  0
   -1.1690   -0.9519    1.1654 H   0  0  0  0  0  0
   -4.1423    9.7271    1.1791 H   0  0  0  0  0  0
   -5.8038    6.2857   -1.4726 H   0  0  0  0  0  0
  1  2  1  0  0  0
  2  3  1  0  0  0
  3  4  1  0  0  0
  4  5  1  0  0  0
  5  6  1  0  0  0
  5  7  1  0  0  0
  7  8  1  0  0  0
  7 39  1  0  0  0
  8  9  1  0  0  0
  8 27  1  0  0  0
  9 10  1  0  0  0
 10 11  1  0  0  0
 10 12  1  0  0  0
 12 13  1  0  0  0
 13 14  1  0  0  0
 13 26  1  0  0  0
 14 15  1  0  0  0
 15 16  1  0  0  0
 16 17  1  0  0  0
 17 18  1  0  0  0
 18 19  1  0  0  0
 18 25  1  0  0  0
 19 20  1  0  0  0
 20 21  1  0  0  0
 20 24  1  0  0  0
 21 22  1  0  0  0
 21 23  1  0  0  0
 23 51  1  0  0  0
 23 52  1  0  0  0
 24 53  1  0  0  0
 25 54  1  0  0  0
 26 55  1  0  0  0
 27 28  1  0  0  0
 28 29  2  0  0  0
 28 30  1  0  0  0
 30 31  1  0  0  0
 31 32  1  0  0  0
 31 36  1  0  0  0
 32 33  1  0  0  0
 33 34  2  0  0  0
 33 35  1  0  0  0
 35 56  1  0  0  0
 36 37  2  0  0  0
 36 38  1  0  0  0
 38 57  1  0  0  0
 39 40  1  0  0  0
 40 41  2  0  0  0
 40 42  1  0  0  0
 42 43  1  0  0  0
 43 44  1  0  0  0
 43 48  1  0  0  0
 44 45  1  0  0  0
 45 46  2  0  0  0
 45 47  1  0  0  0
 47 58  1  0  0  0
 48 49  2  0  0  0
 48 50  1  0  0  0
 50 59  1  0  0  0
M  END
>  <AUTHOR>
    GENERATED BY OPEN BABEL 2.4.1

>  <CHROM.1>
167.41839395,178.73014968,116.46652450,-77.29342252,-90.50320043,69.96781221
-13.36039918,100.83626707,107.64250539,-11.63864845,-57.04213780,-50.45043449
69.55088289,54.49206295,165.41313053,-66.00687402,-45.62310009,-173.99203773
-64.49807850,143.90783792,41.93424004,173.64990186,-70.41295186,-101.01441983
-93.52286084,-173.88912839,-56.16694751,125.08186975,110.87090571,-2.19674970
-173.33295646,-135.62643608,165.70617072,-169.59683053,55.70964702,85.11978131
-1.92595509,-167.41326431,-175.04409950,-2.10041670,3.64711068,5.04119974
2.87227834,-0.81614685,-0.21802740

>  <COMPND>
    UNNAMED

>  <MASTER>
        0    0    0    0    0    0    0    0  109    0  109    0

>  <Name>
FB1.pdb

>  <RI>
0

>  <Rbt.Current_Directory>
/home/fc/tossine/F10/p3/1_clust04

>  <Rbt.Executable>
rbdock/0.1.0

>  <Rbt.Library>
librxdock.so/0.1.0

>  <Rbt.Parameter_File>
/cluster/rxdock/data/scripts/dock.prm

>  <Rbt.Receptor>
rx_2.prm

>  <SCORE>
30.9157

>  <SCORE.INTER>
4.91403

>  <SCORE.INTER.CONST>
1

>  <SCORE.INTER.POLAR>
-0.764597

>  <SCORE.INTER.REPUL>
0.229287

>  <SCORE.INTER.ROT>
32

>  <SCORE.INTER.VDW>
-31.0328

>  <SCORE.INTER.norm>
0.0982806

>  <SCORE.INTRA>
24.1921

>  <SCORE.INTRA.DIHEDRAL>
40.3442

>  <SCORE.INTRA.DIHEDRAL.0>
47.3121

>  <SCORE.INTRA.POLAR>
1.29952

>  <SCORE.INTRA.POLAR.0>
-1.47808

>  <SCORE.INTRA.REPUL>
0

>  <SCORE.INTRA.REPUL.0>
0

>  <SCORE.INTRA.VDW>
-0.398406

>  <SCORE.INTRA.VDW.0>
-2.78316

>  <SCORE.INTRA.norm>
0.483841

>  <SCORE.RESTR>
1.80961

>  <SCORE.RESTR.CAVITY>
1.80961

>  <SCORE.RESTR.norm>
0.0361922

>  <SCORE.SYSTEM>
0

>  <SCORE.SYSTEM.CONST>
0

>  <SCORE.SYSTEM.DIHEDRAL>
0

>  <SCORE.SYSTEM.norm>
0

>  <SCORE.heavy>
50

>  <SCORE.norm>
0.618314

$$$$
