FB1.pdb
  RxDock  10092019063D
librxdock.so/0.1.0
 59 58  0  0  0  0  0  0  0  0999 V2000
    3.6114    1.9229    3.4454 C   0  0  0  0  0  0
    3.6809    0.5000    3.9947 C   0  0  0  0  0  0
    2.4460    0.1565    4.8440 C   0  0  0  0  0  0
    1.1576   -0.0440    4.0076 C   0  0  0  0  0  0
   -0.1771   -0.0143    4.8311 C   0  0  0  0  0  0
   -0.2909    1.3643    5.5217 C   0  0  0  0  0  0
   -1.4666   -0.3200    3.9584 C   0  0  0  0  0  0
   -1.6236   -1.8107    3.3931 C   0  0  0  0  0  0
   -1.3103   -3.1374    4.2116 C   0  0  0  0  0  0
   -0.7825   -4.4104    3.3049 C   0  0  0  0  0  0
    0.7287   -4.5421    3.4870 C   0  0  0  0  0  0
   -1.4805   -5.8157    3.5925 C   0  0  0  0  0  0
   -1.3398   -7.1120    2.6340 C   0  0  0  0  0  0
   -1.8385   -7.1163    1.1483 C   0  0  0  0  0  0
   -3.3295   -7.6038    0.8512 C   0  0  0  0  0  0
   -3.8083   -9.1061    0.9433 C   0  0  0  0  0  0
   -2.8742  -10.2384    0.4405 C   0  0  0  0  0  0
   -1.4889  -10.3908    1.1800 C   0  0  0  0  0  0
   -1.2465  -11.7227    1.9008 C   0  0  0  0  0  0
   -0.0848  -11.8025    2.9315 C   0  0  0  0  0  0
   -0.1885  -11.0655    4.2996 C   0  0  0  0  0  0
   -0.8009  -11.8537    5.4490 C   0  0  0  0  0  0
    1.1143  -10.4927    4.6880 N   0  0  0  0  0  0
    0.0108  -13.2098    3.2695 O   0  0  0  0  0  0
   -0.4494  -10.2005    0.2142 O   0  0  0  0  0  0
    0.0736   -7.3624    2.5562 O   0  0  0  0  0  0
   -3.0155   -1.9513    2.9990 O   0  0  0  0  0  0
   -3.2831   -2.7980    1.9710 C   0  0  0  0  0  0
   -2.4672   -3.4379    1.3351 O   0  0  0  0  0  0
   -4.7751   -2.8950    1.8103 C   0  0  0  0  0  0
   -5.4586   -3.5445    3.0241 C   0  0  0  0  0  0
   -6.8905   -3.0359    3.2354 C   0  0  0  0  0  0
   -7.5161   -2.6099    1.9276 C   0  0  0  0  0  0
   -7.6769   -1.4386    1.6023 O   0  0  0  0  0  0
   -7.8803   -3.6395    1.1490 O   0  0  0  0  0  0
   -5.4733   -5.0533    2.7427 C   0  0  0  0  0  0
   -6.2196   -5.5723    1.9265 O   0  0  0  0  0  0
   -4.6315   -5.7661    3.5038 O   0  0  0  0  0  0
   -2.6980    0.1466    4.6408 O   0  0  0  0  0  0
   -3.3620    1.2463    4.1232 C   0  0  0  0  0  0
   -2.8410    2.1135    3.4342 O   0  0  0  0  0  0
   -4.8470    1.2664    4.5088 C   0  0  0  0  0  0
   -5.1560    1.6263    5.9952 C   0  0  0  0  0  0
   -5.1212    3.1108    6.4022 C   0  0  0  0  0  0
   -4.4328    3.9805    5.3902 C   0  0  0  0  0  0
   -3.2809    4.3858    5.4635 O   0  0  0  0  0  0
   -5.2202    4.2717    4.3435 O   0  0  0  0  0  0
   -6.4666    1.0396    6.5342 C   0  0  0  0  0  0
   -6.7287    0.9880    7.7196 O   0  0  0  0  0  0
   -7.3675    0.6768    5.5972 O   0  0  0  0  0  0
    1.7203  -11.2394    5.0252 H   0  0  0  0  0  0
    0.9746   -9.8817    5.4959 H   0  0  0  0  0  0
    0.8922  -13.3036    3.6886 H   0  0  0  0  0  0
   -0.5407   -9.3042   -0.1585 H   0  0  0  0  0  0
    0.4238   -7.3937    3.4622 H   0  0  0  0  0  0
   -7.7342   -4.5250    1.5339 H   0  0  0  0  0  0
   -4.0650   -5.2239    4.1069 H   0  0  0  0  0  0
   -4.7470    4.9487    3.8153 H   0  0  0  0  0  0
   -8.1979    0.2815    5.9442 H   0  0  0  0  0  0
  1  2  1  0  0  0
  2  3  1  0  0  0
  3  4  1  0  0  0
  4  5  1  0  0  0
  5  6  1  0  0  0
  5  7  1  0  0  0
  7  8  1  0  0  0
  7 39  1  0  0  0
  8  9  1  0  0  0
  8 27  1  0  0  0
  9 10  1  0  0  0
 10 11  1  0  0  0
 10 12  1  0  0  0
 12 13  1  0  0  0
 13 14  1  0  0  0
 13 26  1  0  0  0
 14 15  1  0  0  0
 15 16  1  0  0  0
 16 17  1  0  0  0
 17 18  1  0  0  0
 18 19  1  0  0  0
 18 25  1  0  0  0
 19 20  1  0  0  0
 20 21  1  0  0  0
 20 24  1  0  0  0
 21 22  1  0  0  0
 21 23  1  0  0  0
 23 51  1  0  0  0
 23 52  1  0  0  0
 24 53  1  0  0  0
 25 54  1  0  0  0
 26 55  1  0  0  0
 27 28  1  0  0  0
 28 29  2  0  0  0
 28 30  1  0  0  0
 30 31  1  0  0  0
 31 32  1  0  0  0
 31 36  1  0  0  0
 32 33  1  0  0  0
 33 34  2  0  0  0
 33 35  1  0  0  0
 35 56  1  0  0  0
 36 37  2  0  0  0
 36 38  1  0  0  0
 38 57  1  0  0  0
 39 40  1  0  0  0
 40 41  2  0  0  0
 40 42  1  0  0  0
 42 43  1  0  0  0
 43 44  1  0  0  0
 43 48  1  0  0  0
 44 45  1  0  0  0
 45 46  2  0  0  0
 45 47  1  0  0  0
 47 58  1  0  0  0
 48 49  2  0  0  0
 48 50  1  0  0  0
 50 59  1  0  0  0
M  END
>  <AUTHOR>
    GENERATED BY OPEN BABEL 2.4.1

>  <CHROM.1>
72.29594093,-164.42503382,60.20095372,68.45442221,41.84025909,109.25078275
-149.26795160,149.81083748,103.02617269,167.06561274,-61.82848633,-91.48958126
51.29529441,-72.15136131,-39.33462504,61.83628854,118.17006507,-164.74213796
60.39354631,70.77957238,90.03095501,163.14272962,-76.07184965,-1.05441642
-65.13969139,150.56429101,28.49662980,-73.66867988,-105.14558428,2.50963461
-3.88529525,-24.11549842,73.03682030,79.36235306,-15.56771527,164.67631157
-99.91448701,171.16582046,178.62084749,-2.69508392,-3.47358671,3.44538327
-1.78754600,0.12159182,-2.91636432

>  <COMPND>
    UNNAMED

>  <MASTER>
        0    0    0    0    0    0    0    0  109    0  109    0

>  <Name>
FB1.pdb

>  <RI>
0

>  <Rbt.Current_Directory>
/home/fc/tossine/F10/p3/1_clust04

>  <Rbt.Executable>
rbdock/0.1.0

>  <Rbt.Library>
librxdock.so/0.1.0

>  <Rbt.Parameter_File>
/cluster/rxdock/data/scripts/dock.prm

>  <Rbt.Receptor>
rx_1.prm

>  <SCORE>
1.48688

>  <SCORE.INTER>
-13.4266

>  <SCORE.INTER.CONST>
1

>  <SCORE.INTER.POLAR>
-5.44607

>  <SCORE.INTER.REPUL>
0.242377

>  <SCORE.INTER.ROT>
32

>  <SCORE.INTER.VDW>
-33.5218

>  <SCORE.INTER.norm>
-0.268532

>  <SCORE.INTRA>
11.7821

>  <SCORE.INTRA.DIHEDRAL>
19.8767

>  <SCORE.INTRA.DIHEDRAL.0>
47.3121

>  <SCORE.INTRA.POLAR>
1.0224

>  <SCORE.INTRA.POLAR.0>
-1.47808

>  <SCORE.INTRA.REPUL>
0

>  <SCORE.INTRA.REPUL.0>
0

>  <SCORE.INTRA.VDW>
-1.6324

>  <SCORE.INTRA.VDW.0>
-2.78316

>  <SCORE.INTRA.norm>
0.235642

>  <SCORE.RESTR>
3.13137

>  <SCORE.RESTR.CAVITY>
3.13137

>  <SCORE.RESTR.norm>
0.0626274

>  <SCORE.SYSTEM>
0

>  <SCORE.SYSTEM.CONST>
0

>  <SCORE.SYSTEM.DIHEDRAL>
0

>  <SCORE.SYSTEM.norm>
0

>  <SCORE.heavy>
50

>  <SCORE.norm>
0.0297377

$$$$
