FB1.pdb
  RxDock  10092018093D
librxdock.so/0.1.0
 59 58  0  0  0  0  0  0  0  0999 V2000
    4.3220   -1.0612   -2.0767 C   0  0  0  0  0  0
    3.5416   -1.6684   -0.9133 C   0  0  0  0  0  0
    3.0069   -0.5868    0.0398 C   0  0  0  0  0  0
    1.5895   -0.0833   -0.3304 C   0  0  0  0  0  0
    0.8274    0.6559    0.8243 C   0  0  0  0  0  0
   -0.5512    1.1044    0.2868 C   0  0  0  0  0  0
    0.6669   -0.2188    2.1385 C   0  0  0  0  0  0
    0.5496    0.5719    3.5267 C   0  0  0  0  0  0
    1.6416    1.5727    4.1048 C   0  0  0  0  0  0
    1.1555    2.4629    5.4058 C   0  0  0  0  0  0
    0.3598    3.6654    4.9008 C   0  0  0  0  0  0
    0.3074    1.6866    6.5116 C   0  0  0  0  0  0
    0.0242    2.2525    8.0010 C   0  0  0  0  0  0
    1.0541    3.1505    8.7684 C   0  0  0  0  0  0
    1.4831    2.7189   10.2445 C   0  0  0  0  0  0
    2.6084    3.4370   11.0887 C   0  0  0  0  0  0
    2.9866    2.8818   12.4873 C   0  0  0  0  0  0
    1.8392    2.8559   13.5699 C   0  0  0  0  0  0
    1.0313    4.1491   13.7347 C   0  0  0  0  0  0
   -0.2697    4.3172   12.8996 C   0  0  0  0  0  0
   -1.4107    5.2557   13.3923 C   0  0  0  0  0  0
   -1.6703    5.2770   14.8921 C   0  0  0  0  0  0
   -1.2292    6.6231   12.8691 N   0  0  0  0  0  0
    0.1718    4.8908   11.6426 O   0  0  0  0  0  0
    0.9376    1.7962   13.2327 O   0  0  0  0  0  0
   -1.1559    3.0628    7.8702 O   0  0  0  0  0  0
   -0.6604    1.3722    3.4374 O   0  0  0  0  0  0
   -1.7660    0.8905    4.0626 C   0  0  0  0  0  0
   -2.0219   -0.2802    4.2712 O   0  0  0  0  0  0
   -2.5827    2.0553    4.5500 C   0  0  0  0  0  0
   -4.0175    1.6535    4.9276 C   0  0  0  0  0  0
   -4.4388    2.1953    6.2996 C   0  0  0  0  0  0
   -4.6154    3.6955    6.2624 C   0  0  0  0  0  0
   -4.6934    4.3438    5.2244 O   0  0  0  0  0  0
   -4.6813    4.2561    7.4791 O   0  0  0  0  0  0
   -4.9210    2.2369    3.8325 C   0  0  0  0  0  0
   -6.1382    2.1342    3.8472 O   0  0  0  0  0  0
   -4.2605    2.8287    2.8277 O   0  0  0  0  0  0
   -0.4094   -1.2273    1.9823 O   0  0  0  0  0  0
   -0.1945   -2.5026    2.4777 C   0  0  0  0  0  0
    0.7178   -2.8117    3.2331 O   0  0  0  0  0  0
   -1.2380   -3.5083    1.9736 C   0  0  0  0  0  0
   -2.2257   -4.0564    3.0499 C   0  0  0  0  0  0
   -3.4183   -4.9047    2.5720 C   0  0  0  0  0  0
   -3.0854   -5.7734    1.3934 C   0  0  0  0  0  0
   -2.7358   -5.3761    0.2904 O   0  0  0  0  0  0
   -3.1916   -7.0812    1.6735 O   0  0  0  0  0  0
   -1.5568   -4.8219    4.1983 C   0  0  0  0  0  0
   -0.3727   -4.7261    4.4543 O   0  0  0  0  0  0
   -2.3917   -5.5347    4.9833 O   0  0  0  0  0  0
   -0.4248    7.0512   13.3252 H   0  0  0  0  0  0
   -2.0288    7.1917   13.1568 H   0  0  0  0  0  0
    0.5081    5.7801   11.8820 H   0  0  0  0  0  0
    1.4430    0.9628   13.2088 H   0  0  0  0  0  0
   -1.8545    2.5151    7.4745 H   0  0  0  0  0  0
   -4.9122    5.2048    7.4887 H   0  0  0  0  0  0
   -4.8400    3.1801    2.1069 H   0  0  0  0  0  0
   -2.9263   -7.5650    0.8630 H   0  0  0  0  0  0
   -1.9587   -6.2072    5.5547 H   0  0  0  0  0  0
  1  2  1  0  0  0
  2  3  1  0  0  0
  3  4  1  0  0  0
  4  5  1  0  0  0
  5  6  1  0  0  0
  5  7  1  0  0  0
  7  8  1  0  0  0
  7 39  1  0  0  0
  8  9  1  0  0  0
  8 27  1  0  0  0
  9 10  1  0  0  0
 10 11  1  0  0  0
 10 12  1  0  0  0
 12 13  1  0  0  0
 13 14  1  0  0  0
 13 26  1  0  0  0
 14 15  1  0  0  0
 15 16  1  0  0  0
 16 17  1  0  0  0
 17 18  1  0  0  0
 18 19  1  0  0  0
 18 25  1  0  0  0
 19 20  1  0  0  0
 20 21  1  0  0  0
 20 24  1  0  0  0
 21 22  1  0  0  0
 21 23  1  0  0  0
 23 51  1  0  0  0
 23 52  1  0  0  0
 24 53  1  0  0  0
 25 54  1  0  0  0
 26 55  1  0  0  0
 27 28  1  0  0  0
 28 29  2  0  0  0
 28 30  1  0  0  0
 30 31  1  0  0  0
 31 32  1  0  0  0
 31 36  1  0  0  0
 32 33  1  0  0  0
 33 34  2  0  0  0
 33 35  1  0  0  0
 35 56  1  0  0  0
 36 37  2  0  0  0
 36 38  1  0  0  0
 38 57  1  0  0  0
 39 40  1  0  0  0
 40 41  2  0  0  0
 40 42  1  0  0  0
 42 43  1  0  0  0
 43 44  1  0  0  0
 43 48  1  0  0  0
 44 45  1  0  0  0
 45 46  2  0  0  0
 45 47  1  0  0  0
 47 58  1  0  0  0
 48 49  2  0  0  0
 48 50  1  0  0  0
 50 59  1  0  0  0
M  END
>  <AUTHOR>
    GENERATED BY OPEN BABEL 2.4.1

>  <CHROM.1>
90.58538441,161.50717741,179.31241588,152.54099458,-58.96126623,138.72007267
169.13277169,100.53723506,-82.16197959,165.32783007,-32.49722545,-127.75787949
55.11519781,173.83707216,-176.95498818,-60.84135034,-48.50122712,92.03945750
58.21726069,154.97494803,-37.59493559,-65.79527249,-70.11281313,-28.07419165
164.48791924,131.52010064,69.97837356,-177.80806343,14.45556110,-172.29804626
178.16293716,12.98158345,-111.61279497,171.23500047,35.42906052,18.24685195
-62.24189535,-177.98870370,164.12454613,-0.85390621,0.72294577,5.59203386
-1.61562426,-0.15874290,0.97184811

>  <COMPND>
    UNNAMED

>  <MASTER>
        0    0    0    0    0    0    0    0  109    0  109    0

>  <Name>
FB1.pdb

>  <RI>
0

>  <Rbt.Current_Directory>
/home/fc/tossine/F10/p3/1_clust04

>  <Rbt.Executable>
rbdock/0.1.0

>  <Rbt.Library>
librxdock.so/0.1.0

>  <Rbt.Parameter_File>
/cluster/rxdock/data/scripts/dock.prm

>  <Rbt.Receptor>
rx_0.prm

>  <SCORE>
21.9026

>  <SCORE.INTER>
1.74173

>  <SCORE.INTER.CONST>
1

>  <SCORE.INTER.POLAR>
-3.84693

>  <SCORE.INTER.REPUL>
0.751535

>  <SCORE.INTER.ROT>
32

>  <SCORE.INTER.VDW>
-26.3364

>  <SCORE.INTER.norm>
0.0348346

>  <SCORE.INTRA>
17.008

>  <SCORE.INTRA.DIHEDRAL>
21.3532

>  <SCORE.INTRA.DIHEDRAL.0>
47.3121

>  <SCORE.INTRA.POLAR>
1.46235

>  <SCORE.INTRA.POLAR.0>
-1.47808

>  <SCORE.INTRA.REPUL>
0

>  <SCORE.INTRA.REPUL.0>
0

>  <SCORE.INTRA.VDW>
1.35945

>  <SCORE.INTRA.VDW.0>
-2.78316

>  <SCORE.INTRA.norm>
0.340161

>  <SCORE.RESTR>
3.15277

>  <SCORE.RESTR.CAVITY>
3.15277

>  <SCORE.RESTR.norm>
0.0630555

>  <SCORE.SYSTEM>
0

>  <SCORE.SYSTEM.CONST>
0

>  <SCORE.SYSTEM.DIHEDRAL>
0

>  <SCORE.SYSTEM.norm>
0

>  <SCORE.heavy>
50

>  <SCORE.norm>
0.438051

$$$$
