FB1.pdb
  RxDock  10092019073D
librxdock.so/0.1.0
 59 58  0  0  0  0  0  0  0  0999 V2000
   -1.0671  -11.0475    4.9367 C   0  0  0  0  0  0
   -0.5535   -9.7484    4.3204 C   0  0  0  0  0  0
   -1.1950   -8.5145    4.9763 C   0  0  0  0  0  0
   -2.6091   -8.1911    4.4326 C   0  0  0  0  0  0
   -2.8586   -6.6797    4.0954 C   0  0  0  0  0  0
   -1.7463   -6.2074    3.1309 C   0  0  0  0  0  0
   -4.2961   -6.3957    3.4864 C   0  0  0  0  0  0
   -4.6373   -4.8765    3.1095 C   0  0  0  0  0  0
   -4.0620   -4.0949    1.8500 C   0  0  0  0  0  0
   -3.1743   -2.7509    2.2064 C   0  0  0  0  0  0
   -2.0139   -3.1619    3.1112 C   0  0  0  0  0  0
   -2.6151   -1.9269    0.9603 C   0  0  0  0  0  0
   -1.3915   -0.8713    1.0456 C   0  0  0  0  0  0
   -1.1712    0.0610    2.2860 C   0  0  0  0  0  0
    0.0900    1.0400    2.2830 C   0  0  0  0  0  0
    1.5798    0.5708    2.5176 C   0  0  0  0  0  0
    2.2452    0.8010    3.9002 C   0  0  0  0  0  0
    3.0778    2.1303    4.0700 C   0  0  0  0  0  0
    4.2866    2.2982    3.1408 C   0  0  0  0  0  0
    5.4887    1.3266    3.3119 C   0  0  0  0  0  0
    6.6181    1.2689    2.2412 C   0  0  0  0  0  0
    6.3505    0.3996    1.0204 C   0  0  0  0  0  0
    7.0327    2.6269    1.8409 N   0  0  0  0  0  0
    6.1462    1.7659    4.5278 O   0  0  0  0  0  0
    2.1911    3.2358    3.8669 O   0  0  0  0  0  0
   -0.2030   -1.6759    0.9652 O   0  0  0  0  0  0
   -6.0799   -4.8131    2.9442 O   0  0  0  0  0  0
   -6.6074   -3.6142    2.5840 C   0  0  0  0  0  0
   -7.0660   -3.3282    1.4944 O   0  0  0  0  0  0
   -6.6253   -2.7197    3.7927 C   0  0  0  0  0  0
   -7.0247   -1.2750    3.4520 C   0  0  0  0  0  0
   -8.5455   -1.0853    3.3841 C   0  0  0  0  0  0
   -9.2579   -2.0649    4.2875 C   0  0  0  0  0  0
   -9.8897   -3.0317    3.8754 O   0  0  0  0  0  0
   -9.1328   -1.7776    5.5916 O   0  0  0  0  0  0
   -6.4355   -0.4003    4.5673 C   0  0  0  0  0  0
   -5.6434    0.5054    4.3563 O   0  0  0  0  0  0
   -6.8240   -0.7437    5.8030 O   0  0  0  0  0  0
   -4.5979   -7.3249    2.3705 O   0  0  0  0  0  0
   -4.8008   -8.6631    2.6637 C   0  0  0  0  0  0
   -5.2179   -9.0860    3.7341 O   0  0  0  0  0  0
   -4.4428   -9.5796    1.4863 C   0  0  0  0  0  0
   -3.1241   -9.2274    0.7304 C   0  0  0  0  0  0
   -2.5204  -10.2909   -0.2050 C   0  0  0  0  0  0
   -1.5080  -11.1652    0.4771 C   0  0  0  0  0  0
   -1.1322  -11.0516    1.6357 O   0  0  0  0  0  0
   -1.0450  -12.1361   -0.3250 O   0  0  0  0  0  0
   -3.1705   -7.9094   -0.0526 C   0  0  0  0  0  0
   -4.2010   -7.4381   -0.4916 O   0  0  0  0  0  0
   -2.0001   -7.2425   -0.1344 O   0  0  0  0  0  0
    8.0167    2.6113    1.5761 H   0  0  0  0  0  0
    6.9901    3.2364    2.6607 H   0  0  0  0  0  0
    5.4288    1.8077    5.1949 H   0  0  0  0  0  0
    1.8977    3.2237    2.9373 H   0  0  0  0  0  0
   -0.1132   -2.1640    1.8007 H   0  0  0  0  0  0
   -9.6379   -2.3550    6.1957 H   0  0  0  0  0  0
   -7.5705   -1.3923    5.8328 H   0  0  0  0  0  0
   -1.4080  -11.9597   -1.2186 H   0  0  0  0  0  0
   -1.2266   -7.7022    0.2614 H   0  0  0  0  0  0
  1  2  1  0  0  0
  2  3  1  0  0  0
  3  4  1  0  0  0
  4  5  1  0  0  0
  5  6  1  0  0  0
  5  7  1  0  0  0
  7  8  1  0  0  0
  7 39  1  0  0  0
  8  9  1  0  0  0
  8 27  1  0  0  0
  9 10  1  0  0  0
 10 11  1  0  0  0
 10 12  1  0  0  0
 12 13  1  0  0  0
 13 14  1  0  0  0
 13 26  1  0  0  0
 14 15  1  0  0  0
 15 16  1  0  0  0
 16 17  1  0  0  0
 17 18  1  0  0  0
 18 19  1  0  0  0
 18 25  1  0  0  0
 19 20  1  0  0  0
 20 21  1  0  0  0
 20 24  1  0  0  0
 21 22  1  0  0  0
 21 23  1  0  0  0
 23 51  1  0  0  0
 23 52  1  0  0  0
 24 53  1  0  0  0
 25 54  1  0  0  0
 26 55  1  0  0  0
 27 28  1  0  0  0
 28 29  2  0  0  0
 28 30  1  0  0  0
 30 31  1  0  0  0
 31 32  1  0  0  0
 31 36  1  0  0  0
 32 33  1  0  0  0
 33 34  2  0  0  0
 33 35  1  0  0  0
 35 56  1  0  0  0
 36 37  2  0  0  0
 36 38  1  0  0  0
 38 57  1  0  0  0
 39 40  1  0  0  0
 40 41  2  0  0  0
 40 42  1  0  0  0
 42 43  1  0  0  0
 43 44  1  0  0  0
 43 48  1  0  0  0
 44 45  1  0  0  0
 45 46  2  0  0  0
 45 47  1  0  0  0
 47 58  1  0  0  0
 48 49  2  0  0  0
 48 50  1  0  0  0
 50 59  1  0  0  0
M  END
>  <AUTHOR>
    GENERATED BY OPEN BABEL 2.4.1

>  <CHROM.1>
-80.85285861,-134.20768547,53.96304635,-179.90609510,74.36870903,69.04404592
-119.35831184,-178.36036024,57.51920687,-160.96323692,-36.42753405,178.46004395
-71.47659914,-74.58411590,-102.10226668,-93.17334807,-61.41334762,-66.35209841
-65.95872610,168.47201122,-83.03578907,51.63524333,149.76011104,107.65046276
172.13768218,83.42828022,28.39041894,121.13913194,-107.10363091,175.63137555
-11.46947600,27.29676189,42.96086127,164.49191764,-92.45341295,-27.04257708
-2.66871891,7.24818931,4.16381451,-2.28172804,-3.86258821,2.71886961,-2.31494810
0.14006423,0.17845902

>  <COMPND>
    UNNAMED

>  <MASTER>
        0    0    0    0    0    0    0    0  109    0  109    0

>  <Name>
FB1.pdb

>  <RI>
0

>  <Rbt.Current_Directory>
/home/fc/tossine/F10/p3/1_clust04

>  <Rbt.Executable>
rbdock/0.1.0

>  <Rbt.Library>
librxdock.so/0.1.0

>  <Rbt.Parameter_File>
/cluster/rxdock/data/scripts/dock.prm

>  <Rbt.Receptor>
rx_1.prm

>  <SCORE>
28.5869

>  <SCORE.INTER>
5.23828

>  <SCORE.INTER.CONST>
1

>  <SCORE.INTER.POLAR>
-0.858595

>  <SCORE.INTER.REPUL>
0.140704

>  <SCORE.INTER.ROT>
32

>  <SCORE.INTER.VDW>
-29.946

>  <SCORE.INTER.norm>
0.104766

>  <SCORE.INTRA>
23.2304

>  <SCORE.INTRA.DIHEDRAL>
29.11

>  <SCORE.INTRA.DIHEDRAL.0>
47.3121

>  <SCORE.INTRA.POLAR>
0.543568

>  <SCORE.INTRA.POLAR.0>
-1.47808

>  <SCORE.INTRA.REPUL>
0

>  <SCORE.INTRA.REPUL.0>
0

>  <SCORE.INTRA.VDW>
6.82728

>  <SCORE.INTRA.VDW.0>
-2.78316

>  <SCORE.INTRA.norm>
0.464608

>  <SCORE.RESTR>
0.118229

>  <SCORE.RESTR.CAVITY>
0.118229

>  <SCORE.RESTR.norm>
0.00236459

>  <SCORE.SYSTEM>
0

>  <SCORE.SYSTEM.CONST>
0

>  <SCORE.SYSTEM.DIHEDRAL>
0

>  <SCORE.SYSTEM.norm>
0

>  <SCORE.heavy>
50

>  <SCORE.norm>
0.571738

$$$$
