FB1.pdb
  RxDock  10092018133D
librxdock.so/0.1.0
 59 58  0  0  0  0  0  0  0  0999 V2000
   -0.5625    8.8498    2.3322 C   0  0  0  0  0  0
    0.4298    7.7342    2.6519 C   0  0  0  0  0  0
    0.1968    7.1496    4.0549 C   0  0  0  0  0  0
    1.2395    6.0774    4.4582 C   0  0  0  0  0  0
    0.8650    4.6074    4.0592 C   0  0  0  0  0  0
    2.1488    3.7474    4.1137 C   0  0  0  0  0  0
   -0.2783    3.9780    4.9617 C   0  0  0  0  0  0
   -0.8644    2.5587    4.5053 C   0  0  0  0  0  0
   -0.3011    1.1451    4.9662 C   0  0  0  0  0  0
    0.0414    0.0952    3.7407 C   0  0  0  0  0  0
    1.4909    0.3103    3.3086 C   0  0  0  0  0  0
   -0.2005   -1.4507    4.0511 C   0  0  0  0  0  0
   -1.5047   -2.2796    3.5709 C   0  0  0  0  0  0
   -1.8043   -2.5738    2.0610 C   0  0  0  0  0  0
   -2.9965   -3.5748    1.7065 C   0  0  0  0  0  0
   -3.8450   -4.3623    2.7810 C   0  0  0  0  0  0
   -5.0732   -5.1939    2.3257 C   0  0  0  0  0  0
   -4.7812   -6.6505    1.7943 C   0  0  0  0  0  0
   -3.4370   -7.2660    2.2027 C   0  0  0  0  0  0
   -2.1548   -6.7975    1.4579 C   0  0  0  0  0  0
   -0.7643   -7.3964    1.8227 C   0  0  0  0  0  0
    0.4241   -6.4486    1.7414 C   0  0  0  0  0  0
   -0.8107   -8.0726    3.1330 N   0  0  0  0  0  0
   -2.3748   -7.1744    0.0747 O   0  0  0  0  0  0
   -5.8321   -7.5073    2.2539 O   0  0  0  0  0  0
   -1.3679   -3.5722    4.1850 O   0  0  0  0  0  0
   -2.2579    2.5427    4.9183 O   0  0  0  0  0  0
   -2.5052    2.5168    6.2537 C   0  0  0  0  0  0
   -1.9105    3.1462    7.1079 O   0  0  0  0  0  0
   -3.7115    1.6526    6.4977 C   0  0  0  0  0  0
   -5.0114    2.2962    5.9891 C   0  0  0  0  0  0
   -4.8090    3.0819    4.6871 C   0  0  0  0  0  0
   -4.5871    4.5504    4.9655 C   0  0  0  0  0  0
   -4.8462    5.4398    4.1620 O   0  0  0  0  0  0
   -4.0784    4.7926    6.1827 O   0  0  0  0  0  0
   -5.9925    1.1388    5.7571 C   0  0  0  0  0  0
   -6.9093    0.8782    6.5214 O   0  0  0  0  0  0
   -5.7314    0.4023    4.6684 O   0  0  0  0  0  0
    0.1059    3.9843    6.3942 O   0  0  0  0  0  0
   -0.0953    5.1431    7.1255 C   0  0  0  0  0  0
   -0.7392    6.1088    6.7367 O   0  0  0  0  0  0
    0.5843    5.0914    8.5002 C   0  0  0  0  0  0
   -0.3707    5.1727    9.7314 C   0  0  0  0  0  0
    0.2611    5.2391   11.1338 C   0  0  0  0  0  0
    0.5893    3.8853   11.6941 C   0  0  0  0  0  0
   -0.2244    3.0395   12.0390 O   0  0  0  0  0  0
    1.9112    3.6677   11.7693 O   0  0  0  0  0  0
   -1.4182    6.2902    9.6532 C   0  0  0  0  0  0
   -1.2550    7.3039    9.0031 O   0  0  0  0  0  0
   -2.5897    6.0305   10.2707 O   0  0  0  0  0  0
    0.0380   -7.8530    3.6526 H   0  0  0  0  0  0
   -0.7723   -9.0830    2.9808 H   0  0  0  0  0  0
   -3.3376   -7.0516   -0.0644 H   0  0  0  0  0  0
   -5.6493   -8.4105    1.9356 H   0  0  0  0  0  0
   -0.6899   -4.0674    3.6955 H   0  0  0  0  0  0
   -3.9756    5.7364    6.4110 H   0  0  0  0  0  0
   -6.3292   -0.3766    4.5472 H   0  0  0  0  0  0
    2.3493    4.5094   11.5226 H   0  0  0  0  0  0
   -3.3439    6.5978    9.9957 H   0  0  0  0  0  0
  1  2  1  0  0  0
  2  3  1  0  0  0
  3  4  1  0  0  0
  4  5  1  0  0  0
  5  6  1  0  0  0
  5  7  1  0  0  0
  7  8  1  0  0  0
  7 39  1  0  0  0
  8  9  1  0  0  0
  8 27  1  0  0  0
  9 10  1  0  0  0
 10 11  1  0  0  0
 10 12  1  0  0  0
 12 13  1  0  0  0
 13 14  1  0  0  0
 13 26  1  0  0  0
 14 15  1  0  0  0
 15 16  1  0  0  0
 16 17  1  0  0  0
 17 18  1  0  0  0
 18 19  1  0  0  0
 18 25  1  0  0  0
 19 20  1  0  0  0
 20 21  1  0  0  0
 20 24  1  0  0  0
 21 22  1  0  0  0
 21 23  1  0  0  0
 23 51  1  0  0  0
 23 52  1  0  0  0
 24 53  1  0  0  0
 25 54  1  0  0  0
 26 55  1  0  0  0
 27 28  1  0  0  0
 28 29  2  0  0  0
 28 30  1  0  0  0
 30 31  1  0  0  0
 31 32  1  0  0  0
 31 36  1  0  0  0
 32 33  1  0  0  0
 33 34  2  0  0  0
 33 35  1  0  0  0
 35 56  1  0  0  0
 36 37  2  0  0  0
 36 38  1  0  0  0
 38 57  1  0  0  0
 39 40  1  0  0  0
 40 41  2  0  0  0
 40 42  1  0  0  0
 42 43  1  0  0  0
 43 44  1  0  0  0
 43 48  1  0  0  0
 44 45  1  0  0  0
 45 46  2  0  0  0
 45 47  1  0  0  0
 47 58  1  0  0  0
 48 49  2  0  0  0
 48 50  1  0  0  0
 50 59  1  0  0  0
M  END
>  <AUTHOR>
    GENERATED BY OPEN BABEL 2.4.1

>  <CHROM.1>
-176.23703510,-89.46417820,162.41859484,171.93734283,90.11956928,83.09137654
-127.95372827,-67.77988812,89.62560696,100.22283087,66.63040610,171.29111854
-75.41637742,-3.88105793,173.72471841,83.46045849,19.72096067,-77.24844071
-179.36681759,-179.50459977,-144.85732843,34.91472451,-138.71726551,40.83450793
-69.91019499,36.52543751,-95.55455724,103.52164709,-154.30435515,-176.40989766
176.47818138,10.85942893,-117.44508466,-175.19511729,-85.06939763,-25.91238334
-68.51655106,6.15889717,-161.72627812,-1.77405226,1.15411656,5.21025473,-1.39953673
-0.35271593,-2.63870163

>  <COMPND>
    UNNAMED

>  <MASTER>
        0    0    0    0    0    0    0    0  109    0  109    0

>  <Name>
FB1.pdb

>  <RI>
0

>  <Rbt.Current_Directory>
/home/fc/tossine/F10/p3/1_clust04

>  <Rbt.Executable>
rbdock/0.1.0

>  <Rbt.Library>
librxdock.so/0.1.0

>  <Rbt.Parameter_File>
/cluster/rxdock/data/scripts/dock.prm

>  <Rbt.Receptor>
rx_0.prm

>  <SCORE>
33.252

>  <SCORE.INTER>
5.44002

>  <SCORE.INTER.CONST>
1

>  <SCORE.INTER.POLAR>
-1.68135

>  <SCORE.INTER.REPUL>
0.0599559

>  <SCORE.INTER.ROT>
32

>  <SCORE.INTER.VDW>
-26.5432

>  <SCORE.INTER.norm>
0.1088

>  <SCORE.INTRA>
26.9142

>  <SCORE.INTRA.DIHEDRAL>
31.073

>  <SCORE.INTRA.DIHEDRAL.0>
47.3121

>  <SCORE.INTRA.POLAR>
1.47808

>  <SCORE.INTRA.POLAR.0>
-1.47808

>  <SCORE.INTRA.REPUL>
0.0136731

>  <SCORE.INTRA.REPUL.0>
0

>  <SCORE.INTRA.VDW>
6.2839

>  <SCORE.INTRA.VDW.0>
-2.78316

>  <SCORE.INTRA.norm>
0.538284

>  <SCORE.RESTR>
0.897766

>  <SCORE.RESTR.CAVITY>
0.897766

>  <SCORE.RESTR.norm>
0.0179553

>  <SCORE.SYSTEM>
0

>  <SCORE.SYSTEM.CONST>
0

>  <SCORE.SYSTEM.DIHEDRAL>
0

>  <SCORE.SYSTEM.norm>
0

>  <SCORE.heavy>
50

>  <SCORE.norm>
0.66504

$$$$
