FB1.pdb
  RxDock  10092022013D
librxdock.so/0.1.0
 59 58  0  0  0  0  0  0  0  0999 V2000
   -0.5719    7.1329    5.6289 C   0  0  0  0  0  0
    0.1416    5.9213    5.0338 C   0  0  0  0  0  0
   -0.7125    4.6474    5.1426 C   0  0  0  0  0  0
   -0.2332    3.6751    6.2492 C   0  0  0  0  0  0
   -1.3227    2.6718    6.7658 C   0  0  0  0  0  0
   -2.4160    3.4794    7.5027 C   0  0  0  0  0  0
   -1.9548    1.7772    5.6177 C   0  0  0  0  0  0
   -1.1499    0.4564    5.2008 C   0  0  0  0  0  0
   -1.7822   -0.9963    5.0661 C   0  0  0  0  0  0
   -2.0417   -1.5055    3.5186 C   0  0  0  0  0  0
   -1.1614   -2.7262    3.2556 C   0  0  0  0  0  0
   -3.5526   -1.8426    3.1334 C   0  0  0  0  0  0
   -3.9936   -2.6174    1.7829 C   0  0  0  0  0  0
   -2.9513   -3.2553    0.8018 C   0  0  0  0  0  0
   -2.4018   -4.7187    1.1272 C   0  0  0  0  0  0
   -1.0713   -5.3221    0.5272 C   0  0  0  0  0  0
   -1.0062   -6.8325    0.1780 C   0  0  0  0  0  0
   -0.8851   -7.8328    1.3921 C   0  0  0  0  0  0
   -1.8611   -9.0159    1.3975 C   0  0  0  0  0  0
   -2.2125   -9.6881    0.0399 C   0  0  0  0  0  0
   -2.3362  -11.2368   -0.0678 C   0  0  0  0  0  0
   -3.6368  -11.8490    0.4333 C   0  0  0  0  0  0
   -2.0309  -11.6945   -1.4366 N   0  0  0  0  0  0
   -3.5311   -9.1822   -0.2904 O   0  0  0  0  0  0
    0.4515   -8.3457    1.4102 O   0  0  0  0  0  0
   -4.8044   -3.7152    2.2347 O   0  0  0  0  0  0
   -0.5809    0.7240    3.8904 O   0  0  0  0  0  0
    0.6630    0.2356    3.6466 C   0  0  0  0  0  0
    1.0852   -0.8558    3.9785 O   0  0  0  0  0  0
    1.4089    1.2325    2.8033 C   0  0  0  0  0  0
    2.9319    1.1405    2.9889 C   0  0  0  0  0  0
    3.6867    1.1054    1.6538 C   0  0  0  0  0  0
    4.2058    2.4757    1.2849 C   0  0  0  0  0  0
    3.6101    3.2498    0.5436 O   0  0  0  0  0  0
    5.3865    2.7695    1.8492 O   0  0  0  0  0  0
    3.3356    2.3874    3.7879 C   0  0  0  0  0  0
    2.8620    3.4943    3.5810 O   0  0  0  0  0  0
    4.2908    2.1726    4.7030 O   0  0  0  0  0  0
   -3.3853    1.4927    5.8870 O   0  0  0  0  0  0
   -4.3124    1.7842    4.9003 C   0  0  0  0  0  0
   -4.2831    2.7805    4.1898 O   0  0  0  0  0  0
   -5.4011    0.7090    4.7861 C   0  0  0  0  0  0
   -6.4964    0.7335    5.8971 C   0  0  0  0  0  0
   -7.4278   -0.4861    6.0216 C   0  0  0  0  0  0
   -7.8429   -1.0453    4.6914 C   0  0  0  0  0  0
   -7.2975   -0.8180    3.6202 O   0  0  0  0  0  0
   -8.8994   -1.8668    4.7872 O   0  0  0  0  0  0
   -5.9713    1.0477    7.3034 C   0  0  0  0  0  0
   -6.1896    2.1005    7.8698 O   0  0  0  0  0  0
   -5.3346    0.0327    7.9243 O   0  0  0  0  0  0
   -2.7803  -11.4012   -2.0619 H   0  0  0  0  0  0
   -2.0588  -12.7165   -1.4532 H   0  0  0  0  0  0
   -3.3709   -8.2732   -0.6212 H   0  0  0  0  0  0
    0.4366   -9.2181    1.8451 H   0  0  0  0  0  0
   -5.7371   -3.4603    2.1368 H   0  0  0  0  0  0
    5.7505    2.0799    2.4369 H   0  0  0  0  0  0
    4.5331    2.9690    5.2375 H   0  0  0  0  0  0
   -9.1487   -2.1126    3.8713 H   0  0  0  0  0  0
   -5.1716    0.1644    8.8847 H   0  0  0  0  0  0
  1  2  1  0  0  0
  2  3  1  0  0  0
  3  4  1  0  0  0
  4  5  1  0  0  0
  5  6  1  0  0  0
  5  7  1  0  0  0
  7  8  1  0  0  0
  7 39  1  0  0  0
  8  9  1  0  0  0
  8 27  1  0  0  0
  9 10  1  0  0  0
 10 11  1  0  0  0
 10 12  1  0  0  0
 12 13  1  0  0  0
 13 14  1  0  0  0
 13 26  1  0  0  0
 14 15  1  0  0  0
 15 16  1  0  0  0
 16 17  1  0  0  0
 17 18  1  0  0  0
 18 19  1  0  0  0
 18 25  1  0  0  0
 19 20  1  0  0  0
 20 21  1  0  0  0
 20 24  1  0  0  0
 21 22  1  0  0  0
 21 23  1  0  0  0
 23 51  1  0  0  0
 23 52  1  0  0  0
 24 53  1  0  0  0
 25 54  1  0  0  0
 26 55  1  0  0  0
 27 28  1  0  0  0
 28 29  2  0  0  0
 28 30  1  0  0  0
 30 31  1  0  0  0
 31 32  1  0  0  0
 31 36  1  0  0  0
 32 33  1  0  0  0
 33 34  2  0  0  0
 33 35  1  0  0  0
 35 56  1  0  0  0
 36 37  2  0  0  0
 36 38  1  0  0  0
 38 57  1  0  0  0
 39 40  1  0  0  0
 40 41  2  0  0  0
 40 42  1  0  0  0
 42 43  1  0  0  0
 43 44  1  0  0  0
 43 48  1  0  0  0
 44 45  1  0  0  0
 45 46  2  0  0  0
 45 47  1  0  0  0
 47 58  1  0  0  0
 48 49  2  0  0  0
 48 50  1  0  0  0
 50 59  1  0  0  0
M  END
>  <AUTHOR>
    GENERATED BY OPEN BABEL 2.4.1

>  <CHROM.1>
-104.73025208,157.98717161,-66.83813946,83.81022517,130.55978524,126.82825006
103.71851551,142.24363423,116.31754300,-167.78703595,7.19536531,83.86587984
98.79828880,-160.67827322,-144.20423846,-74.66600785,130.92782496,37.63745518
-154.13423870,139.48580372,79.04163702,77.23200120,-69.98690610,40.78879586
153.76576327,131.91392617,97.88946205,-40.89876749,-95.40437012,-1.32544067
-178.25571329,-39.84665975,76.16157542,-166.83474052,-39.60305452,108.76616093
16.87345303,174.77248554,-167.32701510,-1.78232416,-1.15146634,3.47329467
1.38036920,0.33719844,0.41709096

>  <COMPND>
    UNNAMED

>  <MASTER>
        0    0    0    0    0    0    0    0  109    0  109    0

>  <Name>
FB1.pdb

>  <RI>
0

>  <Rbt.Current_Directory>
/home/fc/tossine/F10/p3/1_clust04

>  <Rbt.Executable>
rbdock/0.1.0

>  <Rbt.Library>
librxdock.so/0.1.0

>  <Rbt.Parameter_File>
/cluster/rxdock/data/scripts/dock.prm

>  <Rbt.Receptor>
rx_4.prm

>  <SCORE>
63.79

>  <SCORE.INTER>
17.4914

>  <SCORE.INTER.CONST>
1

>  <SCORE.INTER.POLAR>
-1.96528

>  <SCORE.INTER.REPUL>
1.65135

>  <SCORE.INTER.ROT>
32

>  <SCORE.INTER.VDW>
-21.4834

>  <SCORE.INTER.norm>
0.349827

>  <SCORE.INTRA>
39.9689

>  <SCORE.INTRA.DIHEDRAL>
65.7941

>  <SCORE.INTRA.DIHEDRAL.0>
47.3121

>  <SCORE.INTRA.POLAR>
1.47808

>  <SCORE.INTRA.POLAR.0>
-1.47808

>  <SCORE.INTRA.REPUL>
0

>  <SCORE.INTRA.REPUL.0>
0

>  <SCORE.INTRA.VDW>
2.04637

>  <SCORE.INTRA.VDW.0>
-2.78316

>  <SCORE.INTRA.norm>
0.799377

>  <SCORE.RESTR>
6.3298

>  <SCORE.RESTR.CAVITY>
6.3298

>  <SCORE.RESTR.norm>
0.126596

>  <SCORE.SYSTEM>
0

>  <SCORE.SYSTEM.CONST>
0

>  <SCORE.SYSTEM.DIHEDRAL>
0

>  <SCORE.SYSTEM.norm>
0

>  <SCORE.heavy>
50

>  <SCORE.norm>
1.2758

$$$$
