FB1.pdb
  RxDock  10092022003D
librxdock.so/0.1.0
 59 58  0  0  0  0  0  0  0  0999 V2000
    0.6606   -5.3894    3.5765 C   0  0  0  0  0  0
   -0.3235   -4.5435    4.3812 C   0  0  0  0  0  0
    0.3674   -3.3376    5.0390 C   0  0  0  0  0  0
    0.8973   -2.2980    4.0200 C   0  0  0  0  0  0
    0.8105   -0.8048    4.4926 C   0  0  0  0  0  0
    1.3637    0.0947    3.3632 C   0  0  0  0  0  0
   -0.6535   -0.3566    4.9094 C   0  0  0  0  0  0
   -0.7921    0.5190    6.2436 C   0  0  0  0  0  0
   -0.6088    2.0962    6.3262 C   0  0  0  0  0  0
   -0.9241    2.9112    4.9270 C   0  0  0  0  0  0
   -1.5476    4.2603    5.2814 C   0  0  0  0  0  0
    0.3162    3.1355    3.9492 C   0  0  0  0  0  0
    1.7409    3.7448    4.4154 C   0  0  0  0  0  0
    1.8893    4.6648    5.6754 C   0  0  0  0  0  0
    0.9287    5.9336    5.8041 C   0  0  0  0  0  0
    1.0881    7.0616    6.8981 C   0  0  0  0  0  0
    2.1450    8.1792    6.6955 C   0  0  0  0  0  0
    1.8850    9.1903    5.5126 C   0  0  0  0  0  0
    3.1285    9.8081    4.8611 C   0  0  0  0  0  0
    2.9334   11.0053    3.8880 C   0  0  0  0  0  0
    4.0400   11.3751    2.8565 C   0  0  0  0  0  0
    4.5962   10.2312    2.0202 C   0  0  0  0  0  0
    3.6054   12.4932    1.9978 N   0  0  0  0  0  0
    1.7793   10.6438    3.0872 O   0  0  0  0  0  0
    1.1354    8.5055    4.5031 O   0  0  0  0  0  0
    2.5616    2.5969    4.6902 O   0  0  0  0  0  0
   -2.1365    0.2863    6.7445 O   0  0  0  0  0  0
   -3.1019    1.1555    6.3473 C   0  0  0  0  0  0
   -3.1823    1.6932    5.2592 O   0  0  0  0  0  0
   -4.1217    1.2691    7.4465 C   0  0  0  0  0  0
   -5.4972    1.7220    6.9312 C   0  0  0  0  0  0
   -6.2534    0.6002    6.2080 C   0  0  0  0  0  0
   -6.1161    0.7287    4.7087 C   0  0  0  0  0  0
   -5.0845    0.4717    4.0976 O   0  0  0  0  0  0
   -7.2360    1.1514    4.1038 O   0  0  0  0  0  0
   -6.2842    2.1725    8.1696 C   0  0  0  0  0  0
   -7.2264    1.5433    8.6264 O   0  0  0  0  0  0
   -5.8838    3.3437    8.6834 O   0  0  0  0  0  0
   -1.3712    0.2579    3.7660 O   0  0  0  0  0  0
   -1.6712   -0.5369    2.6722 C   0  0  0  0  0  0
   -1.6140   -0.1677    1.5066 O   0  0  0  0  0  0
   -2.0903   -1.9558    3.0789 C   0  0  0  0  0  0
   -2.7027   -2.8330    1.9431 C   0  0  0  0  0  0
   -1.9552   -4.1163    1.5375 C   0  0  0  0  0  0
   -2.5215   -4.7604    0.3050 C   0  0  0  0  0  0
   -2.8504   -5.9340    0.2002 O   0  0  0  0  0  0
   -2.6586   -3.8937   -0.7100 O   0  0  0  0  0  0
   -4.1736   -3.2130    2.1538 C   0  0  0  0  0  0
   -4.5319   -4.3433    2.4198 O   0  0  0  0  0  0
   -5.0469   -2.1843    2.1307 O   0  0  0  0  0  0
    4.3133   12.6611    1.2842 H   0  0  0  0  0  0
    3.5885   13.3482    2.5584 H   0  0  0  0  0  0
    1.5823   11.4476    2.5616 H   0  0  0  0  0  0
    1.7154    7.8367    4.0947 H   0  0  0  0  0  0
    2.1620    2.1122    5.4318 H   0  0  0  0  0  0
   -7.2095    1.1469    3.1277 H   0  0  0  0  0  0
   -4.9930    3.6438    8.3748 H   0  0  0  0  0  0
   -2.2791   -3.0423   -0.4062 H   0  0  0  0  0  0
   -5.9921   -2.4338    2.2332 H   0  0  0  0  0  0
  1  2  1  0  0  0
  2  3  1  0  0  0
  3  4  1  0  0  0
  4  5  1  0  0  0
  5  6  1  0  0  0
  5  7  1  0  0  0
  7  8  1  0  0  0
  7 39  1  0  0  0
  8  9  1  0  0  0
  8 27  1  0  0  0
  9 10  1  0  0  0
 10 11  1  0  0  0
 10 12  1  0  0  0
 12 13  1  0  0  0
 13 14  1  0  0  0
 13 26  1  0  0  0
 14 15  1  0  0  0
 15 16  1  0  0  0
 16 17  1  0  0  0
 17 18  1  0  0  0
 18 19  1  0  0  0
 18 25  1  0  0  0
 19 20  1  0  0  0
 20 21  1  0  0  0
 20 24  1  0  0  0
 21 22  1  0  0  0
 21 23  1  0  0  0
 23 51  1  0  0  0
 23 52  1  0  0  0
 24 53  1  0  0  0
 25 54  1  0  0  0
 26 55  1  0  0  0
 27 28  1  0  0  0
 28 29  2  0  0  0
 28 30  1  0  0  0
 30 31  1  0  0  0
 31 32  1  0  0  0
 31 36  1  0  0  0
 32 33  1  0  0  0
 33 34  2  0  0  0
 33 35  1  0  0  0
 35 56  1  0  0  0
 36 37  2  0  0  0
 36 38  1  0  0  0
 38 57  1  0  0  0
 39 40  1  0  0  0
 40 41  2  0  0  0
 40 42  1  0  0  0
 42 43  1  0  0  0
 43 44  1  0  0  0
 43 48  1  0  0  0
 44 45  1  0  0  0
 45 46  2  0  0  0
 45 47  1  0  0  0
 47 58  1  0  0  0
 48 49  2  0  0  0
 48 50  1  0  0  0
 50 59  1  0  0  0
M  END
>  <AUTHOR>
    GENERATED BY OPEN BABEL 2.4.1

>  <CHROM.1>
66.25725444,145.15751293,-179.50585113,136.73280422,84.23631588,65.39865740
26.32036987,-92.72880351,145.32854047,-50.38568609,-24.22788069,-51.59854225
-63.53887385,-170.99905332,79.97048256,67.43234008,-150.77710259,-168.37898019
-69.27720413,-159.90520001,48.92316846,172.45313045,-175.24798444,35.27781150
-156.13639196,75.54419222,-99.21685013,-109.05612445,73.08306386,-173.34246466
-16.37135052,-141.44974553,168.85111888,117.27394849,-171.24831053,-109.38309002
-128.34139331,4.32794037,177.87249752,-1.26633007,1.90747726,4.32102912,-2.08101215
0.53455875,0.37233154

>  <COMPND>
    UNNAMED

>  <MASTER>
        0    0    0    0    0    0    0    0  109    0  109    0

>  <Name>
FB1.pdb

>  <RI>
0

>  <Rbt.Current_Directory>
/home/fc/tossine/F10/p3/1_clust04

>  <Rbt.Executable>
rbdock/0.1.0

>  <Rbt.Library>
librxdock.so/0.1.0

>  <Rbt.Parameter_File>
/cluster/rxdock/data/scripts/dock.prm

>  <Rbt.Receptor>
rx_4.prm

>  <SCORE>
49.8422

>  <SCORE.INTER>
18.2109

>  <SCORE.INTER.CONST>
1

>  <SCORE.INTER.POLAR>
-1.33369

>  <SCORE.INTER.REPUL>
0.173262

>  <SCORE.INTER.ROT>
32

>  <SCORE.INTER.VDW>
-15.5209

>  <SCORE.INTER.norm>
0.364218

>  <SCORE.INTRA>
24.5412

>  <SCORE.INTRA.DIHEDRAL>
25.9366

>  <SCORE.INTRA.DIHEDRAL.0>
47.3121

>  <SCORE.INTRA.POLAR>
1.37647

>  <SCORE.INTRA.POLAR.0>
-1.47808

>  <SCORE.INTRA.REPUL>
0

>  <SCORE.INTRA.REPUL.0>
0

>  <SCORE.INTRA.VDW>
6.89292

>  <SCORE.INTRA.VDW.0>
-2.78316

>  <SCORE.INTRA.norm>
0.490825

>  <SCORE.RESTR>
7.09

>  <SCORE.RESTR.CAVITY>
7.09

>  <SCORE.RESTR.norm>
0.1418

>  <SCORE.SYSTEM>
0

>  <SCORE.SYSTEM.CONST>
0

>  <SCORE.SYSTEM.DIHEDRAL>
0

>  <SCORE.SYSTEM.norm>
0

>  <SCORE.heavy>
50

>  <SCORE.norm>
0.996843

$$$$
