FB1.pdb
  RxDock  10092022003D
librxdock.so/0.1.0
 59 58  0  0  0  0  0  0  0  0999 V2000
    3.0449   -2.9653    5.9612 C   0  0  0  0  0  0
    2.8797   -3.2777    4.4758 C   0  0  0  0  0  0
    1.5569   -2.7238    3.9212 C   0  0  0  0  0  0
    1.0581   -3.4667    2.6566 C   0  0  0  0  0  0
    0.6970   -2.5396    1.4440 C   0  0  0  0  0  0
    1.1055   -3.2641    0.1405 C   0  0  0  0  0  0
   -0.8319   -2.1171    1.4031 C   0  0  0  0  0  0
   -1.9104   -3.3002    1.3445 C   0  0  0  0  0  0
   -3.4618   -3.1104    1.0524 C   0  0  0  0  0  0
   -4.4528   -3.3559    2.3482 C   0  0  0  0  0  0
   -4.6624   -2.0197    3.0586 C   0  0  0  0  0  0
   -5.8676   -4.0229    2.0349 C   0  0  0  0  0  0
   -7.2792   -3.2353    2.1117 C   0  0  0  0  0  0
   -8.5458   -3.7017    1.3153 C   0  0  0  0  0  0
   -8.8988   -2.9549   -0.0510 C   0  0  0  0  0  0
  -10.2059   -2.0996   -0.2843 C   0  0  0  0  0  0
  -10.8192   -1.3027    0.8973 C   0  0  0  0  0  0
  -10.1284    0.0694    1.2570 C   0  0  0  0  0  0
   -8.7509   -0.0183    1.9257 C   0  0  0  0  0  0
   -8.6895   -0.3078    3.4524 C   0  0  0  0  0  0
   -9.1377    0.7720    4.4813 C   0  0  0  0  0  0
  -10.6284    1.0750    4.5394 C   0  0  0  0  0  0
   -8.6082    0.4697    5.8246 N   0  0  0  0  0  0
   -9.6005   -1.4185    3.6529 O   0  0  0  0  0  0
  -10.0007    0.8293    0.0504 O   0  0  0  0  0  0
   -7.6623   -3.2977    3.4959 O   0  0  0  0  0  0
   -1.4577   -4.2117    0.3069 O   0  0  0  0  0  0
   -1.4613   -5.5369    0.6054 C   0  0  0  0  0  0
   -0.5499   -6.1624    1.1129 O   0  0  0  0  0  0
   -2.8250   -6.0906    0.2970 C   0  0  0  0  0  0
   -3.3215   -7.0701    1.3724 C   0  0  0  0  0  0
   -4.8209   -6.9188    1.6592 C   0  0  0  0  0  0
   -5.2847   -7.9288    2.6830 C   0  0  0  0  0  0
   -4.7413   -8.0910    3.7703 O   0  0  0  0  0  0
   -6.3548   -8.6353    2.2900 O   0  0  0  0  0  0
   -3.0297   -8.4759    0.8297 C   0  0  0  0  0  0
   -2.0895   -9.1563    1.2112 O   0  0  0  0  0  0
   -3.8651   -8.8798   -0.1373 O   0  0  0  0  0  0
   -1.1445   -1.1344    2.4692 O   0  0  0  0  0  0
   -0.3511   -0.0044    2.5771 C   0  0  0  0  0  0
    0.3720    0.4263    1.6882 O   0  0  0  0  0  0
   -0.4739    0.6662    3.9517 C   0  0  0  0  0  0
   -1.1000    2.0953    3.9547 C   0  0  0  0  0  0
   -2.6134    2.2215    4.2078 C   0  0  0  0  0  0
   -3.0799    1.4177    5.3871 C   0  0  0  0  0  0
   -2.3778    0.6945    6.0804 O   0  0  0  0  0  0
   -4.3878    1.5837    5.6363 O   0  0  0  0  0  0
   -0.4006    3.0960    4.8830 C   0  0  0  0  0  0
    0.7011    2.8987    5.3564 O   0  0  0  0  0  0
   -1.0433    4.2694    5.0597 O   0  0  0  0  0  0
   -9.3321    0.6531    6.5181 H   0  0  0  0  0  0
   -7.8628    1.1358    6.0394 H   0  0  0  0  0  0
   -9.6658   -1.5112    4.6268 H   0  0  0  0  0  0
   -9.5736    1.6780    0.2692 H   0  0  0  0  0  0
   -8.5345   -2.8785    3.5857 H   0  0  0  0  0  0
   -6.5772   -8.5620    1.3420 H   0  0  0  0  0  0
   -3.7822   -9.8358   -0.3779 H   0  0  0  0  0  0
   -4.5990    1.0258    6.4144 H   0  0  0  0  0  0
   -0.5820    4.9179    5.6366 H   0  0  0  0  0  0
  1  2  1  0  0  0
  2  3  1  0  0  0
  3  4  1  0  0  0
  4  5  1  0  0  0
  5  6  1  0  0  0
  5  7  1  0  0  0
  7  8  1  0  0  0
  7 39  1  0  0  0
  8  9  1  0  0  0
  8 27  1  0  0  0
  9 10  1  0  0  0
 10 11  1  0  0  0
 10 12  1  0  0  0
 12 13  1  0  0  0
 13 14  1  0  0  0
 13 26  1  0  0  0
 14 15  1  0  0  0
 15 16  1  0  0  0
 16 17  1  0  0  0
 17 18  1  0  0  0
 18 19  1  0  0  0
 18 25  1  0  0  0
 19 20  1  0  0  0
 20 21  1  0  0  0
 20 24  1  0  0  0
 21 22  1  0  0  0
 21 23  1  0  0  0
 23 51  1  0  0  0
 23 52  1  0  0  0
 24 53  1  0  0  0
 25 54  1  0  0  0
 26 55  1  0  0  0
 27 28  1  0  0  0
 28 29  2  0  0  0
 28 30  1  0  0  0
 30 31  1  0  0  0
 31 32  1  0  0  0
 31 36  1  0  0  0
 32 33  1  0  0  0
 33 34  2  0  0  0
 33 35  1  0  0  0
 35 56  1  0  0  0
 36 37  2  0  0  0
 36 38  1  0  0  0
 38 57  1  0  0  0
 39 40  1  0  0  0
 40 41  2  0  0  0
 40 42  1  0  0  0
 42 43  1  0  0  0
 43 44  1  0  0  0
 43 48  1  0  0  0
 44 45  1  0  0  0
 45 46  2  0  0  0
 45 47  1  0  0  0
 47 58  1  0  0  0
 48 49  2  0  0  0
 48 50  1  0  0  0
 50 59  1  0  0  0
M  END
>  <AUTHOR>
    GENERATED BY OPEN BABEL 2.4.1

>  <CHROM.1>
-156.20242961,-128.85386065,143.87811755,-57.93118478,-169.10679325,51.68184081
-109.03856095,133.34993426,91.21221896,-108.97532319,156.38611279,-99.72422730
-176.87166964,-115.72825407,33.27943732,79.22678924,-71.80107791,-80.46426695
-179.97782857,-70.66950816,69.95606103,-171.66575692,-138.58209177,-89.16150307
-138.37619239,141.17940268,177.94586369,102.52673483,51.84841507,13.06761152
-169.83240799,18.98154862,-115.02717446,94.17503375,47.61996259,14.96223316
-1.99773377,179.96605156,-178.49983277,-3.94446659,-2.39956067,2.62322236
-0.02820056,-0.10056936,0.34394589

>  <COMPND>
    UNNAMED

>  <MASTER>
        0    0    0    0    0    0    0    0  109    0  109    0

>  <Name>
FB1.pdb

>  <RI>
0

>  <Rbt.Current_Directory>
/home/fc/tossine/F10/p3/1_clust04

>  <Rbt.Executable>
rbdock/0.1.0

>  <Rbt.Library>
librxdock.so/0.1.0

>  <Rbt.Parameter_File>
/cluster/rxdock/data/scripts/dock.prm

>  <Rbt.Receptor>
rx_4.prm

>  <SCORE>
42.1226

>  <SCORE.INTER>
5.99257

>  <SCORE.INTER.CONST>
1

>  <SCORE.INTER.POLAR>
-1.51026

>  <SCORE.INTER.REPUL>
0.0363365

>  <SCORE.INTER.ROT>
32

>  <SCORE.INTER.VDW>
-26.4542

>  <SCORE.INTER.norm>
0.119851

>  <SCORE.INTRA>
30.0672

>  <SCORE.INTRA.DIHEDRAL>
55.5675

>  <SCORE.INTRA.DIHEDRAL.0>
47.3121

>  <SCORE.INTRA.POLAR>
0.89368

>  <SCORE.INTRA.POLAR.0>
-1.47808

>  <SCORE.INTRA.REPUL>
0

>  <SCORE.INTRA.REPUL.0>
0

>  <SCORE.INTRA.VDW>
-0.755043

>  <SCORE.INTRA.VDW.0>
-2.78316

>  <SCORE.INTRA.norm>
0.601345

>  <SCORE.RESTR>
6.06284

>  <SCORE.RESTR.CAVITY>
6.06284

>  <SCORE.RESTR.norm>
0.121257

>  <SCORE.SYSTEM>
0

>  <SCORE.SYSTEM.CONST>
0

>  <SCORE.SYSTEM.DIHEDRAL>
0

>  <SCORE.SYSTEM.norm>
0

>  <SCORE.heavy>
50

>  <SCORE.norm>
0.842453

$$$$
