FB1.pdb
  RxDock  09132019323D
librxdock.so/0.1.0
 59 58  0  0  0  0  0  0  0  0999 V2000
   -0.7427   -4.1975    5.2471 C   0  0  0  0  0  0
   -1.5095   -4.8258    4.0859 C   0  0  0  0  0  0
   -0.6013   -5.7108    3.2163 C   0  0  0  0  0  0
    0.5258   -4.9246    2.5013 C   0  0  0  0  0  0
    0.0318   -3.8482    1.4729 C   0  0  0  0  0  0
   -0.7921   -4.5647    0.3781 C   0  0  0  0  0  0
   -0.8057   -2.6753    2.1370 C   0  0  0  0  0  0
   -0.0484   -1.2824    2.3658 C   0  0  0  0  0  0
   -0.3089    0.0480    1.5349 C   0  0  0  0  0  0
    0.5958    0.2053    0.1645 C   0  0  0  0  0  0
    0.7139    1.6911   -0.1709 C   0  0  0  0  0  0
    2.0490   -0.4517    0.2021 C   0  0  0  0  0  0
    3.2380   -0.0849   -0.8325 C   0  0  0  0  0  0
    4.4819   -1.0139   -1.0464 C   0  0  0  0  0  0
    4.9055   -1.3799   -2.5417 C   0  0  0  0  0  0
    6.2302   -2.1488   -2.9270 C   0  0  0  0  0  0
    7.5951   -1.4175   -2.8282 C   0  0  0  0  0  0
    8.8389   -2.1569   -3.4570 C   0  0  0  0  0  0
    9.6612   -3.0336   -2.5042 C   0  0  0  0  0  0
    8.9010   -3.9303   -1.4862 C   0  0  0  0  0  0
    8.1726   -3.2974   -0.2638 C   0  0  0  0  0  0
    7.9164   -4.2164    0.9225 C   0  0  0  0  0  0
    8.8469   -2.0576    0.1656 N   0  0  0  0  0  0
    7.8512   -4.5606   -2.2638 O   0  0  0  0  0  0
    8.3688   -2.9737   -4.5348 O   0  0  0  0  0  0
    2.5993   -0.0109   -2.1182 O   0  0  0  0  0  0
   -0.3058   -0.9017    3.7447 O   0  0  0  0  0  0
    0.5072    0.0423    4.2860 C   0  0  0  0  0  0
    1.6909    0.1934    4.0502 O   0  0  0  0  0  0
   -0.3239    0.9437    5.1568 C   0  0  0  0  0  0
   -0.6743    2.2718    4.4671 C   0  0  0  0  0  0
   -2.0057    2.8559    4.9566 C   0  0  0  0  0  0
   -3.1770    2.1954    4.2673 C   0  0  0  0  0  0
   -4.0974    2.8175    3.7482 O   0  0  0  0  0  0
   -3.1150    0.8556    4.2745 O   0  0  0  0  0  0
    0.4747    3.2346    4.7972 C   0  0  0  0  0  0
    0.3625    4.1617    5.5848 O   0  0  0  0  0  0
    1.6028    3.0052    4.1113 O   0  0  0  0  0  0
   -2.1078   -2.4922    1.4507 O   0  0  0  0  0  0
   -3.2222   -2.1990    2.2190 C   0  0  0  0  0  0
   -3.1944   -1.5993    3.2858 O   0  0  0  0  0  0
   -4.5210   -2.7124    1.5834 C   0  0  0  0  0  0
   -5.0269   -4.0953    2.0991 C   0  0  0  0  0  0
   -4.0574   -5.2896    2.0360 C   0  0  0  0  0  0
   -4.7427   -6.6122    2.2251 C   0  0  0  0  0  0
   -5.8764   -6.8874    1.8568 O   0  0  0  0  0  0
   -3.9620   -7.5109    2.8440 O   0  0  0  0  0  0
   -5.6228   -4.0699    3.5121 C   0  0  0  0  0  0
   -5.4963   -4.9875    4.2987 O   0  0  0  0  0  0
   -6.2125   -2.9103    3.8714 O   0  0  0  0  0  0
    8.6770   -1.9120    1.1598 H   0  0  0  0  0  0
    8.3976   -1.2642   -0.2973 H   0  0  0  0  0  0
    8.3254   -5.1585   -2.8794 H   0  0  0  0  0  0
    8.2232   -2.4004   -5.3098 H   0  0  0  0  0  0
    1.9451    0.7071   -2.0882 H   0  0  0  0  0  0
   -3.7880    0.4045    3.7295 H   0  0  0  0  0  0
    1.5787    2.1974    3.5406 H   0  0  0  0  0  0
   -4.4940   -8.3292    2.9366 H   0  0  0  0  0  0
   -6.3889   -2.8096    4.8332 H   0  0  0  0  0  0
  1  2  1  0  0  0
  2  3  1  0  0  0
  3  4  1  0  0  0
  4  5  1  0  0  0
  5  6  1  0  0  0
  5  7  1  0  0  0
  7  8  1  0  0  0
  7 39  1  0  0  0
  8  9  1  0  0  0
  8 27  1  0  0  0
  9 10  1  0  0  0
 10 11  1  0  0  0
 10 12  1  0  0  0
 12 13  1  0  0  0
 13 14  1  0  0  0
 13 26  1  0  0  0
 14 15  1  0  0  0
 15 16  1  0  0  0
 16 17  1  0  0  0
 17 18  1  0  0  0
 18 19  1  0  0  0
 18 25  1  0  0  0
 19 20  1  0  0  0
 20 21  1  0  0  0
 20 24  1  0  0  0
 21 22  1  0  0  0
 21 23  1  0  0  0
 23 51  1  0  0  0
 23 52  1  0  0  0
 24 53  1  0  0  0
 25 54  1  0  0  0
 26 55  1  0  0  0
 27 28  1  0  0  0
 28 29  2  0  0  0
 28 30  1  0  0  0
 30 31  1  0  0  0
 31 32  1  0  0  0
 31 36  1  0  0  0
 32 33  1  0  0  0
 33 34  2  0  0  0
 33 35  1  0  0  0
 35 56  1  0  0  0
 36 37  2  0  0  0
 36 38  1  0  0  0
 38 57  1  0  0  0
 39 40  1  0  0  0
 40 41  2  0  0  0
 40 42  1  0  0  0
 42 43  1  0  0  0
 43 44  1  0  0  0
 43 48  1  0  0  0
 44 45  1  0  0  0
 45 46  2  0  0  0
 45 47  1  0  0  0
 47 58  1  0  0  0
 48 49  2  0  0  0
 48 50  1  0  0  0
 50 59  1  0  0  0
M  END
>  <AUTHOR>
    GENERATED BY OPEN BABEL 2.4.1

>  <CHROM.1>
-64.19345607,-62.93334241,-60.14527805,102.24613953,108.01971014,141.45262570
-88.41013412,162.80871527,-155.45409023,-162.43248817,-161.62962990,130.99051626
62.35130966,172.01083849,-72.89793091,-169.90757144,-93.12357114,42.06073881
78.98026947,-71.84003478,-157.84330869,67.42098589,-152.78187993,-34.45335589
-100.76757029,150.93272100,-80.99931637,-107.14073430,-131.02672549,-171.69055639
-5.20672742,28.88679710,96.30532881,-54.61520858,-165.51712102,-144.75045165
33.36172685,179.02612031,-165.18117592,0.67332784,-1.85724945,1.63768531
2.99320785,0.42849160,0.34850968

>  <COMPND>
    UNNAMED

>  <MASTER>
        0    0    0    0    0    0    0    0  109    0  109    0

>  <Name>
FB1.pdb

>  <RI>
0

>  <Rbt.Current_Directory>
/home/fc/tossine/F10/p3/1_clust04

>  <Rbt.Executable>
rbdock/0.1.0

>  <Rbt.Library>
librxdock.so/0.1.0

>  <Rbt.Parameter_File>
/cluster/rxdock/data/scripts/dock.prm

>  <Rbt.Receptor>
rx_2.prm

>  <SCORE>
22.2213

>  <SCORE.INTER>
2.75816

>  <SCORE.INTER.CONST>
1

>  <SCORE.INTER.POLAR>
-2.09848

>  <SCORE.INTER.REPUL>
0.62

>  <SCORE.INTER.ROT>
32

>  <SCORE.INTER.VDW>
-30.607

>  <SCORE.INTER.norm>
0.0551632

>  <SCORE.INTRA>
17.3347

>  <SCORE.INTRA.DIHEDRAL>
24.1425

>  <SCORE.INTRA.DIHEDRAL.0>
47.3121

>  <SCORE.INTRA.POLAR>
1.41215

>  <SCORE.INTRA.POLAR.0>
-1.47808

>  <SCORE.INTRA.REPUL>
0

>  <SCORE.INTRA.REPUL.0>
0

>  <SCORE.INTRA.VDW>
0.462132

>  <SCORE.INTRA.VDW.0>
-2.78316

>  <SCORE.INTRA.norm>
0.346694

>  <SCORE.RESTR>
2.12848

>  <SCORE.RESTR.CAVITY>
2.12848

>  <SCORE.RESTR.norm>
0.0425696

>  <SCORE.SYSTEM>
0

>  <SCORE.SYSTEM.CONST>
0

>  <SCORE.SYSTEM.DIHEDRAL>
0

>  <SCORE.SYSTEM.norm>
0

>  <SCORE.heavy>
50

>  <SCORE.norm>
0.444427

$$$$
