FB1.pdb
  RxDock  10092021083D
librxdock.so/0.1.0
 59 58  0  0  0  0  0  0  0  0999 V2000
   -9.8501   -8.9792    0.8201 C   0  0  0  0  0  0
   -8.8821   -7.8097    0.9828 C   0  0  0  0  0  0
   -7.4727   -8.2868    1.3704 C   0  0  0  0  0  0
   -6.4249   -7.1467    1.4138 C   0  0  0  0  0  0
   -4.9431   -7.6175    1.6206 C   0  0  0  0  0  0
   -4.5950   -8.6294    0.5046 C   0  0  0  0  0  0
   -3.8978   -6.4241    1.6507 C   0  0  0  0  0  0
   -4.2977   -5.1305    2.5068 C   0  0  0  0  0  0
   -3.3589   -3.8716    2.7554 C   0  0  0  0  0  0
   -2.1169   -3.7026    1.6828 C   0  0  0  0  0  0
   -2.7048   -3.4421    0.2969 C   0  0  0  0  0  0
   -1.0391   -2.5778    2.0266 C   0  0  0  0  0  0
   -0.2415   -2.4843    3.4315 C   0  0  0  0  0  0
    0.5834   -1.2180    3.8466 C   0  0  0  0  0  0
   -0.1461    0.2020    3.8238 C   0  0  0  0  0  0
    0.5918    1.5835    4.0278 C   0  0  0  0  0  0
    1.8779    1.6428    4.8939 C   0  0  0  0  0  0
    3.1634    2.2475    4.2076 C   0  0  0  0  0  0
    3.8434    1.3718    3.1478 C   0  0  0  0  0  0
    5.0782    1.9469    2.3977 C   0  0  0  0  0  0
    6.3675    2.3376    3.1791 C   0  0  0  0  0  0
    6.2507    3.5198    4.1310 C   0  0  0  0  0  0
    6.9430    1.1643    3.8635 N   0  0  0  0  0  0
    5.4905    0.8849    1.5000 O   0  0  0  0  0  0
    2.7969    3.4920    3.6022 O   0  0  0  0  0  0
   -1.2554   -2.6193    4.4417 O   0  0  0  0  0  0
   -5.4835   -4.5759    1.8751 O   0  0  0  0  0  0
   -6.1668   -3.6293    2.5696 C   0  0  0  0  0  0
   -6.1169   -3.4419    3.7704 O   0  0  0  0  0  0
   -6.9257   -2.7762    1.5911 C   0  0  0  0  0  0
   -8.3776   -2.5252    2.0287 C   0  0  0  0  0  0
   -8.8086   -1.0664    1.8299 C   0  0  0  0  0  0
   -9.3423   -0.4758    3.1142 C   0  0  0  0  0  0
   -8.9325    0.5728    3.6003 O   0  0  0  0  0  0
  -10.3141   -1.2095    3.6764 O   0  0  0  0  0  0
   -9.2447   -3.4515    1.1649 C   0  0  0  0  0  0
   -8.8151   -4.0501    0.1905 O   0  0  0  0  0  0
  -10.5303   -3.5127    1.5383 O   0  0  0  0  0  0
   -2.5377   -6.9118    1.9859 O   0  0  0  0  0  0
   -2.3030   -7.3804    3.2678 C   0  0  0  0  0  0
   -3.1559   -7.4787    4.1404 O   0  0  0  0  0  0
   -0.8357   -7.7723    3.4866 C   0  0  0  0  0  0
   -0.4700   -9.2489    3.1395 C   0  0  0  0  0  0
    0.8219   -9.5058    2.3423 C   0  0  0  0  0  0
    1.0159   -8.5370    1.2117 C   0  0  0  0  0  0
    0.1251   -8.0446    0.5330 O   0  0  0  0  0  0
    2.3073   -8.2307    1.0142 O   0  0  0  0  0  0
   -0.4579  -10.2021    4.3409 C   0  0  0  0  0  0
   -1.4632  -10.7268    4.7776 O   0  0  0  0  0  0
    0.7641  -10.5104    4.8237 O   0  0  0  0  0  0
    7.0192    0.3946    3.2000 H   0  0  0  0  0  0
    6.2781    0.8390    4.5690 H   0  0  0  0  0  0
    4.7612    0.8157    0.8483 H   0  0  0  0  0  0
    2.4658    4.0848    4.3019 H   0  0  0  0  0  0
   -0.8269   -2.5391    5.3103 H   0  0  0  0  0  0
  -10.3708   -2.1336    3.3663 H   0  0  0  0  0  0
  -11.1315   -3.9288    0.8718 H   0  0  0  0  0  0
    2.8194   -8.7214    1.6912 H   0  0  0  0  0  0
    0.8289  -11.3799    5.2775 H   0  0  0  0  0  0
  1  2  1  0  0  0
  2  3  1  0  0  0
  3  4  1  0  0  0
  4  5  1  0  0  0
  5  6  1  0  0  0
  5  7  1  0  0  0
  7  8  1  0  0  0
  7 39  1  0  0  0
  8  9  1  0  0  0
  8 27  1  0  0  0
  9 10  1  0  0  0
 10 11  1  0  0  0
 10 12  1  0  0  0
 12 13  1  0  0  0
 13 14  1  0  0  0
 13 26  1  0  0  0
 14 15  1  0  0  0
 15 16  1  0  0  0
 16 17  1  0  0  0
 17 18  1  0  0  0
 18 19  1  0  0  0
 18 25  1  0  0  0
 19 20  1  0  0  0
 20 21  1  0  0  0
 20 24  1  0  0  0
 21 22  1  0  0  0
 21 23  1  0  0  0
 23 51  1  0  0  0
 23 52  1  0  0  0
 24 53  1  0  0  0
 25 54  1  0  0  0
 26 55  1  0  0  0
 27 28  1  0  0  0
 28 29  2  0  0  0
 28 30  1  0  0  0
 30 31  1  0  0  0
 31 32  1  0  0  0
 31 36  1  0  0  0
 32 33  1  0  0  0
 33 34  2  0  0  0
 33 35  1  0  0  0
 35 56  1  0  0  0
 36 37  2  0  0  0
 36 38  1  0  0  0
 38 57  1  0  0  0
 39 40  1  0  0  0
 40 41  2  0  0  0
 40 42  1  0  0  0
 42 43  1  0  0  0
 43 44  1  0  0  0
 43 48  1  0  0  0
 44 45  1  0  0  0
 45 46  2  0  0  0
 45 47  1  0  0  0
 47 58  1  0  0  0
 48 49  2  0  0  0
 48 50  1  0  0  0
 50 59  1  0  0  0
M  END
>  <AUTHOR>
    GENERATED BY OPEN BABEL 2.4.1

>  <CHROM.1>
174.47396158,-172.37103308,55.94347843,43.93859299,175.41132337,-68.76534967
19.83851854,167.31880123,64.57504542,54.20452529,-167.25922038,53.65464027
-178.11676738,-171.58277163,-28.87938054,124.36783159,-72.72364475,177.40233864
59.98847668,61.32853324,-66.99269615,67.39465137,49.70153150,-20.64617943
134.41563838,136.47665106,-125.57500995,-11.51359772,127.07195801,17.89944090
166.24295415,3.36126016,-89.23280554,135.49898240,-42.79133157,83.14316083
-34.15197758,-0.97644910,-153.15318098,-2.45362094,-3.87503783,2.61136748
-2.60035695,-0.09293766,0.06620525

>  <COMPND>
    UNNAMED

>  <MASTER>
        0    0    0    0    0    0    0    0  109    0  109    0

>  <Name>
FB1.pdb

>  <RI>
0

>  <Rbt.Current_Directory>
/home/fc/tossine/F10/p3/1_clust04

>  <Rbt.Executable>
rbdock/0.1.0

>  <Rbt.Library>
librxdock.so/0.1.0

>  <Rbt.Parameter_File>
/cluster/rxdock/data/scripts/dock.prm

>  <Rbt.Receptor>
rx_3.prm

>  <SCORE>
17.8129

>  <SCORE.INTER>
6.35677

>  <SCORE.INTER.CONST>
1

>  <SCORE.INTER.POLAR>
-2.25342

>  <SCORE.INTER.REPUL>
1.08778

>  <SCORE.INTER.ROT>
32

>  <SCORE.INTER.VDW>
-28.8205

>  <SCORE.INTER.norm>
0.127135

>  <SCORE.INTRA>
10.5887

>  <SCORE.INTRA.DIHEDRAL>
9.65875

>  <SCORE.INTRA.DIHEDRAL.0>
47.3121

>  <SCORE.INTRA.POLAR>
0.894157

>  <SCORE.INTRA.POLAR.0>
-1.47808

>  <SCORE.INTRA.REPUL>
0

>  <SCORE.INTRA.REPUL.0>
0

>  <SCORE.INTRA.VDW>
2.71921

>  <SCORE.INTRA.VDW.0>
-2.78316

>  <SCORE.INTRA.norm>
0.211774

>  <SCORE.RESTR>
0.86743

>  <SCORE.RESTR.CAVITY>
0.86743

>  <SCORE.RESTR.norm>
0.0173486

>  <SCORE.SYSTEM>
0

>  <SCORE.SYSTEM.CONST>
0

>  <SCORE.SYSTEM.DIHEDRAL>
0

>  <SCORE.SYSTEM.norm>
0

>  <SCORE.heavy>
50

>  <SCORE.norm>
0.356258

$$$$
