FB1.pdb
  RxDock  10092021053D
librxdock.so/0.1.0
 59 58  0  0  0  0  0  0  0  0999 V2000
   -6.3654    5.0238    0.5190 C   0  0  0  0  0  0
   -6.6530    4.3439    1.8555 C   0  0  0  0  0  0
   -5.3639    4.0906    2.6545 C   0  0  0  0  0  0
   -5.3985    2.7828    3.4841 C   0  0  0  0  0  0
   -4.0931    2.4824    4.3003 C   0  0  0  0  0  0
   -3.9069    3.6039    5.3482 C   0  0  0  0  0  0
   -4.0931    1.0541    4.9916 C   0  0  0  0  0  0
   -5.3186    0.7203    5.9677 C   0  0  0  0  0  0
   -5.8072    1.6389    7.1700 C   0  0  0  0  0  0
   -6.1747    0.8328    8.5616 C   0  0  0  0  0  0
   -7.1749    1.6698    9.3574 C   0  0  0  0  0  0
   -6.7368   -0.6500    8.3877 C   0  0  0  0  0  0
   -6.8184   -1.7359    9.5847 C   0  0  0  0  0  0
   -6.4721   -1.3764   11.0702 C   0  0  0  0  0  0
   -6.3790   -2.5628   12.1346 C   0  0  0  0  0  0
   -5.3530   -3.7601   12.0433 C   0  0  0  0  0  0
   -3.8343   -3.4786   12.1908 C   0  0  0  0  0  0
   -3.0135   -4.4863   13.0852 C   0  0  0  0  0  0
   -1.5409   -4.1339   13.3293 C   0  0  0  0  0  0
   -1.2145   -2.9489   14.2819 C   0  0  0  0  0  0
   -2.0286   -1.6235   14.2041 C   0  0  0  0  0  0
   -1.8327   -0.6398   15.3492 C   0  0  0  0  0  0
   -1.8314   -0.9614   12.9006 N   0  0  0  0  0  0
   -1.4669   -3.4669   15.6130 O   0  0  0  0  0  0
   -3.6723   -4.5902   14.3520 O   0  0  0  0  0  0
   -8.1934   -2.1545    9.6107 O   0  0  0  0  0  0
   -6.4901    0.5866    5.1179 O   0  0  0  0  0  0
   -6.7524   -0.6493    4.6189 C   0  0  0  0  0  0
   -5.9509   -1.3976    4.0926 O   0  0  0  0  0  0
   -8.1871   -0.9880    4.9161 C   0  0  0  0  0  0
   -9.0759   -0.9437    3.6629 C   0  0  0  0  0  0
  -10.3205   -1.8313    3.7922 C   0  0  0  0  0  0
  -10.9887   -1.6410    5.1341 C   0  0  0  0  0  0
  -11.5168   -0.5917    5.4860 O   0  0  0  0  0  0
  -10.9519   -2.7348    5.9093 O   0  0  0  0  0  0
   -9.4927    0.5237    3.4930 C   0  0  0  0  0  0
  -10.5037    0.9922    3.9939 O   0  0  0  0  0  0
   -8.6800    1.2419    2.7059 O   0  0  0  0  0  0
   -3.8679   -0.0224    3.9964 O   0  0  0  0  0  0
   -2.5954   -0.5561    3.8793 C   0  0  0  0  0  0
   -1.5795   -0.0387    4.3252 O   0  0  0  0  0  0
   -2.5889   -1.8889    3.1192 C   0  0  0  0  0  0
   -1.3271   -2.7824    3.3291 C   0  0  0  0  0  0
   -0.3150   -2.8877    2.1737 C   0  0  0  0  0  0
   -0.7907   -3.7701    1.0559 C   0  0  0  0  0  0
   -1.4051   -4.8198    1.1875 O   0  0  0  0  0  0
   -0.4858   -3.2755   -0.1536 O   0  0  0  0  0  0
   -0.5303   -2.4715    4.6022 C   0  0  0  0  0  0
    0.4090   -1.7007    4.6216 O   0  0  0  0  0  0
   -1.0065   -3.0301    5.7347 O   0  0  0  0  0  0
   -2.0216   -1.6291   12.1546 H   0  0  0  0  0  0
   -0.8410   -0.7282   12.7992 H   0  0  0  0  0  0
   -0.6427   -3.2812   16.1104 H   0  0  0  0  0  0
   -4.2403   -5.3824   14.3355 H   0  0  0  0  0  0
   -8.2634   -2.9202   10.2051 H   0  0  0  0  0  0
  -10.6178   -3.5427    5.4743 H   0  0  0  0  0  0
   -7.8602    0.7670    2.4209 H   0  0  0  0  0  0
   -0.9064   -3.8664   -0.8133 H   0  0  0  0  0  0
   -1.7985   -3.6008    5.6202 H   0  0  0  0  0  0
  1  2  1  0  0  0
  2  3  1  0  0  0
  3  4  1  0  0  0
  4  5  1  0  0  0
  5  6  1  0  0  0
  5  7  1  0  0  0
  7  8  1  0  0  0
  7 39  1  0  0  0
  8  9  1  0  0  0
  8 27  1  0  0  0
  9 10  1  0  0  0
 10 11  1  0  0  0
 10 12  1  0  0  0
 12 13  1  0  0  0
 13 14  1  0  0  0
 13 26  1  0  0  0
 14 15  1  0  0  0
 15 16  1  0  0  0
 16 17  1  0  0  0
 17 18  1  0  0  0
 18 19  1  0  0  0
 18 25  1  0  0  0
 19 20  1  0  0  0
 20 21  1  0  0  0
 20 24  1  0  0  0
 21 22  1  0  0  0
 21 23  1  0  0  0
 23 51  1  0  0  0
 23 52  1  0  0  0
 24 53  1  0  0  0
 25 54  1  0  0  0
 26 55  1  0  0  0
 27 28  1  0  0  0
 28 29  2  0  0  0
 28 30  1  0  0  0
 30 31  1  0  0  0
 31 32  1  0  0  0
 31 36  1  0  0  0
 32 33  1  0  0  0
 33 34  2  0  0  0
 33 35  1  0  0  0
 35 56  1  0  0  0
 36 37  2  0  0  0
 36 38  1  0  0  0
 38 57  1  0  0  0
 39 40  1  0  0  0
 40 41  2  0  0  0
 40 42  1  0  0  0
 42 43  1  0  0  0
 43 44  1  0  0  0
 43 48  1  0  0  0
 44 45  1  0  0  0
 45 46  2  0  0  0
 45 47  1  0  0  0
 47 58  1  0  0  0
 48 49  2  0  0  0
 48 50  1  0  0  0
 50 59  1  0  0  0
M  END
>  <AUTHOR>
    GENERATED BY OPEN BABEL 2.4.1

>  <CHROM.1>
-145.40626506,179.33357814,63.46941717,-55.71425437,-51.75769937,99.70783512
-137.06421716,89.09684084,-154.77748549,164.44163288,5.96780913,-171.26861282
170.06840252,61.07320345,66.08055651,136.98191185,-174.73284757,72.27571659
96.99484854,-42.92733282,167.88497865,127.34153345,52.27314234,-46.97702093
107.50044027,155.13113632,45.55625335,-90.37431997,65.59338731,-8.18627814
-6.81143839,-15.82244559,-160.89976631,-106.81249083,-75.50379000,-92.86169559
-39.13105221,-174.67078067,1.82485034,-4.91255390,-0.92599896,6.68385537
1.84864007,0.31824373,-1.35180406

>  <COMPND>
    UNNAMED

>  <MASTER>
        0    0    0    0    0    0    0    0  109    0  109    0

>  <Name>
FB1.pdb

>  <RI>
0

>  <Rbt.Current_Directory>
/home/fc/tossine/F10/p3/1_clust04

>  <Rbt.Executable>
rbdock/0.1.0

>  <Rbt.Library>
librxdock.so/0.1.0

>  <Rbt.Parameter_File>
/cluster/rxdock/data/scripts/dock.prm

>  <Rbt.Receptor>
rx_3.prm

>  <SCORE>
34.7081

>  <SCORE.INTER>
10.8447

>  <SCORE.INTER.CONST>
1

>  <SCORE.INTER.POLAR>
-1.76985

>  <SCORE.INTER.REPUL>
0.23355

>  <SCORE.INTER.ROT>
32

>  <SCORE.INTER.VDW>
-21.7056

>  <SCORE.INTER.norm>
0.216894

>  <SCORE.INTRA>
22.2242

>  <SCORE.INTRA.DIHEDRAL>
37.6526

>  <SCORE.INTRA.DIHEDRAL.0>
47.3121

>  <SCORE.INTRA.POLAR>
1.47808

>  <SCORE.INTRA.POLAR.0>
-1.47808

>  <SCORE.INTRA.REPUL>
0

>  <SCORE.INTRA.REPUL.0>
0

>  <SCORE.INTRA.VDW>
-1.6276

>  <SCORE.INTRA.VDW.0>
-2.78316

>  <SCORE.INTRA.norm>
0.444483

>  <SCORE.RESTR>
1.63925

>  <SCORE.RESTR.CAVITY>
1.63925

>  <SCORE.RESTR.norm>
0.032785

>  <SCORE.SYSTEM>
0

>  <SCORE.SYSTEM.CONST>
0

>  <SCORE.SYSTEM.DIHEDRAL>
0

>  <SCORE.SYSTEM.norm>
0

>  <SCORE.heavy>
50

>  <SCORE.norm>
0.694162

$$$$
