FB1.pdb
  RxDock  10092018123D
librxdock.so/0.1.0
 59 58  0  0  0  0  0  0  0  0999 V2000
    1.4600    1.8276   -0.3607 C   0  0  0  0  0  0
    0.3333    0.9709    0.2119 C   0  0  0  0  0  0
    0.4237    0.8605    1.7429 C   0  0  0  0  0  0
    1.7849    0.3161    2.2435 C   0  0  0  0  0  0
    1.8884    0.1203    3.7964 C   0  0  0  0  0  0
    3.2482    0.6855    4.2674 C   0  0  0  0  0  0
    0.6901    0.7818    4.5993 C   0  0  0  0  0  0
   -0.7582    0.1226    4.4151 C   0  0  0  0  0  0
   -1.2286   -1.2496    5.0664 C   0  0  0  0  0  0
   -0.3046   -2.5604    4.6799 C   0  0  0  0  0  0
   -0.7465   -3.7380    5.5471 C   0  0  0  0  0  0
   -0.3083   -2.9953    3.1451 C   0  0  0  0  0  0
   -1.6489   -3.2990    2.2910 C   0  0  0  0  0  0
   -2.6926   -4.3850    2.7237 C   0  0  0  0  0  0
   -4.1042   -4.4182    1.9784 C   0  0  0  0  0  0
   -5.3835   -5.1617    2.5308 C   0  0  0  0  0  0
   -5.2740   -6.6443    2.9748 C   0  0  0  0  0  0
   -5.8533   -7.7234    1.9802 C   0  0  0  0  0  0
   -5.2194   -7.7703    0.5843 C   0  0  0  0  0  0
   -3.7039   -7.4482    0.4515 C   0  0  0  0  0  0
   -2.6398   -8.3469    1.1483 C   0  0  0  0  0  0
   -1.1846   -7.9378    0.9679 C   0  0  0  0  0  0
   -2.9623   -8.5327    2.5758 N   0  0  0  0  0  0
   -3.4256   -7.5677   -0.9669 O   0  0  0  0  0  0
   -5.7063   -9.0103    2.5900 O   0  0  0  0  0  0
   -2.3759   -2.0588    2.2910 O   0  0  0  0  0  0
   -1.7151    1.1004    4.9056 O   0  0  0  0  0  0
   -2.9251    1.1422    4.2896 C   0  0  0  0  0  0
   -3.6852    0.2056    4.1326 O   0  0  0  0  0  0
   -3.2213    2.5690    3.9185 C   0  0  0  0  0  0
   -4.6954    2.9432    4.1413 C   0  0  0  0  0  0
   -5.1110    2.8464    5.6149 C   0  0  0  0  0  0
   -5.5985    1.4569    5.9536 C   0  0  0  0  0  0
   -5.4510    0.9357    7.0537 O   0  0  0  0  0  0
   -6.2137    0.8427    4.9322 O   0  0  0  0  0  0
   -4.8428    4.3891    3.6478 C   0  0  0  0  0  0
   -4.0061    5.2541    3.8579 O   0  0  0  0  0  0
   -5.9926    4.6402    3.0068 O   0  0  0  0  0  0
    1.0391    0.9624    6.0295 O   0  0  0  0  0  0
    1.5160    2.1958    6.4408 C   0  0  0  0  0  0
    2.2017    2.3800    7.4379 O   0  0  0  0  0  0
    1.0891    3.3302    5.4999 C   0  0  0  0  0  0
    0.1149    4.3855    6.1096 C   0  0  0  0  0  0
   -0.4132    5.4999    5.1879 C   0  0  0  0  0  0
    0.6738    6.1770    4.4040 C   0  0  0  0  0  0
    0.6042    6.5109    3.2292 O   0  0  0  0  0  0
    1.7694    6.4109    5.1424 O   0  0  0  0  0  0
   -1.0956    3.7894    6.8389 C   0  0  0  0  0  0
   -2.2313    3.8797    6.4163 O   0  0  0  0  0  0
   -0.8085    3.0584    7.9364 O   0  0  0  0  0  0
   -2.6794   -7.7015    3.0931 H   0  0  0  0  0  0
   -2.3785   -9.2855    2.9473 H   0  0  0  0  0  0
   -3.9655   -6.8637   -1.3844 H   0  0  0  0  0  0
   -6.2749   -9.0387    3.3814 H   0  0  0  0  0  0
   -3.0352   -2.0967    1.5779 H   0  0  0  0  0  0
   -6.5096   -0.0703    5.1124 H   0  0  0  0  0  0
   -6.6293    3.8831    2.9951 H   0  0  0  0  0  0
    2.4210    6.8422    4.5502 H   0  0  0  0  0  0
   -1.5817    2.6405    8.3764 H   0  0  0  0  0  0
  1  2  1  0  0  0
  2  3  1  0  0  0
  3  4  1  0  0  0
  4  5  1  0  0  0
  5  6  1  0  0  0
  5  7  1  0  0  0
  7  8  1  0  0  0
  7 39  1  0  0  0
  8  9  1  0  0  0
  8 27  1  0  0  0
  9 10  1  0  0  0
 10 11  1  0  0  0
 10 12  1  0  0  0
 12 13  1  0  0  0
 13 14  1  0  0  0
 13 26  1  0  0  0
 14 15  1  0  0  0
 15 16  1  0  0  0
 16 17  1  0  0  0
 17 18  1  0  0  0
 18 19  1  0  0  0
 18 25  1  0  0  0
 19 20  1  0  0  0
 20 21  1  0  0  0
 20 24  1  0  0  0
 21 22  1  0  0  0
 21 23  1  0  0  0
 23 51  1  0  0  0
 23 52  1  0  0  0
 24 53  1  0  0  0
 25 54  1  0  0  0
 26 55  1  0  0  0
 27 28  1  0  0  0
 28 29  2  0  0  0
 28 30  1  0  0  0
 30 31  1  0  0  0
 31 32  1  0  0  0
 31 36  1  0  0  0
 32 33  1  0  0  0
 33 34  2  0  0  0
 33 35  1  0  0  0
 35 56  1  0  0  0
 36 37  2  0  0  0
 36 38  1  0  0  0
 38 57  1  0  0  0
 39 40  1  0  0  0
 40 41  2  0  0  0
 40 42  1  0  0  0
 42 43  1  0  0  0
 43 44  1  0  0  0
 43 48  1  0  0  0
 44 45  1  0  0  0
 45 46  2  0  0  0
 45 47  1  0  0  0
 47 58  1  0  0  0
 48 49  2  0  0  0
 48 50  1  0  0  0
 50 59  1  0  0  0
M  END
>  <AUTHOR>
    GENERATED BY OPEN BABEL 2.4.1

>  <CHROM.1>
-55.89608877,-177.01735032,-135.15896060,68.25012657,74.91572116,96.27911709
-57.63527637,147.05753143,171.17626853,-53.84861252,-57.47241787,168.55192850
162.60617068,-162.82841873,-50.92956606,-103.25828397,60.06940626,33.83139073
65.56046945,62.68179835,-179.40893850,63.66667221,-78.84920416,54.34320822
-140.35939731,62.71092664,-88.64687492,-40.82599168,147.65193795,177.79052084
4.56910183,-156.80932862,113.95062171,-176.45329620,-48.86440286,-110.87610626
138.97315974,179.42778638,-177.08719720,-1.91932848,-0.37378070,3.79235266
-1.30297072,-0.09201473,-2.82043144

>  <COMPND>
    UNNAMED

>  <MASTER>
        0    0    0    0    0    0    0    0  109    0  109    0

>  <Name>
FB1.pdb

>  <RI>
0

>  <Rbt.Current_Directory>
/home/fc/tossine/F10/p3/1_clust04

>  <Rbt.Executable>
rbdock/0.1.0

>  <Rbt.Library>
librxdock.so/0.1.0

>  <Rbt.Parameter_File>
/cluster/rxdock/data/scripts/dock.prm

>  <Rbt.Receptor>
rx_0.prm

>  <SCORE>
5.42779

>  <SCORE.INTER>
-7.10156

>  <SCORE.INTER.CONST>
1

>  <SCORE.INTER.POLAR>
-2.66227

>  <SCORE.INTER.REPUL>
0.101135

>  <SCORE.INTER.ROT>
32

>  <SCORE.INTER.VDW>
-35.9555

>  <SCORE.INTER.norm>
-0.142031

>  <SCORE.INTRA>
11.1671

>  <SCORE.INTRA.DIHEDRAL>
15.2001

>  <SCORE.INTRA.DIHEDRAL.0>
47.3121

>  <SCORE.INTRA.POLAR>
1.47808

>  <SCORE.INTRA.POLAR.0>
-1.47808

>  <SCORE.INTRA.REPUL>
0

>  <SCORE.INTRA.REPUL.0>
0

>  <SCORE.INTRA.VDW>
-1.45838

>  <SCORE.INTRA.VDW.0>
-2.78316

>  <SCORE.INTRA.norm>
0.223343

>  <SCORE.RESTR>
1.36221

>  <SCORE.RESTR.CAVITY>
1.36221

>  <SCORE.RESTR.norm>
0.0272442

>  <SCORE.SYSTEM>
0

>  <SCORE.SYSTEM.CONST>
0

>  <SCORE.SYSTEM.DIHEDRAL>
0

>  <SCORE.SYSTEM.norm>
0

>  <SCORE.heavy>
50

>  <SCORE.norm>
0.108556

$$$$
