FB1.pdb
  RxDock  10092022003D
librxdock.so/0.1.0
 59 58  0  0  0  0  0  0  0  0999 V2000
   -8.1347   -9.0213   -1.2093 C   0  0  0  0  0  0
   -6.9407   -9.2211   -0.2789 C   0  0  0  0  0  0
   -6.8425   -8.1010    0.7700 C   0  0  0  0  0  0
   -5.8891   -8.4363    1.9441 C   0  0  0  0  0  0
   -5.4491   -7.2053    2.8110 C   0  0  0  0  0  0
   -4.7823   -7.7342    4.1019 C   0  0  0  0  0  0
   -4.4867   -6.2029    2.0450 C   0  0  0  0  0  0
   -4.3295   -4.7332    2.6626 C   0  0  0  0  0  0
   -3.0037   -3.8568    2.6130 C   0  0  0  0  0  0
   -2.3707   -3.6306    1.1065 C   0  0  0  0  0  0
   -3.3191   -2.7350    0.3112 C   0  0  0  0  0  0
   -0.8935   -3.0314    1.0473 C   0  0  0  0  0  0
   -0.4793   -1.5789    1.6281 C   0  0  0  0  0  0
   -1.0735   -0.2455    1.0580 C   0  0  0  0  0  0
   -0.0646    0.9330    0.6807 C   0  0  0  0  0  0
    1.4451    0.9918    1.1411 C   0  0  0  0  0  0
    1.7933    1.5316    2.5535 C   0  0  0  0  0  0
    3.1919    1.1057    3.1465 C   0  0  0  0  0  0
    4.4039    1.2840    2.2237 C   0  0  0  0  0  0
    5.2909    2.5481    2.4075 C   0  0  0  0  0  0
    6.5260    2.5172    3.3556 C   0  0  0  0  0  0
    7.2061    3.8520    3.6259 C   0  0  0  0  0  0
    6.2024    1.8251    4.6177 N   0  0  0  0  0  0
    5.8361    2.8094    1.0890 O   0  0  0  0  0  0
    3.4143    1.8631    4.3409 O   0  0  0  0  0  0
   -0.8763   -1.6063    3.0094 O   0  0  0  0  0  0
   -5.3310   -3.9080    2.0079 O   0  0  0  0  0  0
   -6.4636   -3.6403    2.7084 C   0  0  0  0  0  0
   -6.5351   -3.4143    3.9014 O   0  0  0  0  0  0
   -7.6144   -3.5679    1.7431 C   0  0  0  0  0  0
   -8.0831   -2.1260    1.4903 C   0  0  0  0  0  0
   -9.2047   -2.0461    0.4467 C   0  0  0  0  0  0
   -9.3626   -0.6375   -0.0769 C   0  0  0  0  0  0
   -9.9560   -0.3620   -1.1141 O   0  0  0  0  0  0
   -8.7909    0.2904    0.7047 O   0  0  0  0  0  0
   -8.5858   -1.6026    2.8428 C   0  0  0  0  0  0
   -8.0818   -0.6503    3.4185 O   0  0  0  0  0  0
   -9.5963   -2.3089    3.3682 O   0  0  0  0  0  0
   -3.1721   -6.8305    1.7661 O   0  0  0  0  0  0
   -3.0145   -7.5318    0.5823 C   0  0  0  0  0  0
   -3.7873   -7.4806   -0.3656 O   0  0  0  0  0  0
   -1.7467   -8.3961    0.5801 C   0  0  0  0  0  0
   -0.3959   -7.6171    0.5254 C   0  0  0  0  0  0
   -0.3096   -6.2663    1.2591 C   0  0  0  0  0  0
   -0.0610   -6.4140    2.7325 C   0  0  0  0  0  0
    0.5990   -5.6512    3.4247 O   0  0  0  0  0  0
   -0.6679   -7.4930    3.2497 O   0  0  0  0  0  0
    0.8309   -8.4380    0.9419 C   0  0  0  0  0  0
    1.9655   -8.0074    0.8797 O   0  0  0  0  0  0
    0.5637   -9.6428    1.4879 O   0  0  0  0  0  0
    6.2260    0.8182    4.4620 H   0  0  0  0  0  0
    5.2316    2.0310    4.8635 H   0  0  0  0  0  0
    6.4914    2.0940    0.9469 H   0  0  0  0  0  0
    2.7878    1.5515    5.0198 H   0  0  0  0  0  0
   -1.8456   -1.6686    3.0425 H   0  0  0  0  0  0
   -8.9096    1.2138    0.4103 H   0  0  0  0  0  0
   -9.8929   -1.9993    4.2598 H   0  0  0  0  0  0
   -0.4194   -7.5283    4.1975 H   0  0  0  0  0  0
    1.3458  -10.1338    1.8246 H   0  0  0  0  0  0
  1  2  1  0  0  0
  2  3  1  0  0  0
  3  4  1  0  0  0
  4  5  1  0  0  0
  5  6  1  0  0  0
  5  7  1  0  0  0
  7  8  1  0  0  0
  7 39  1  0  0  0
  8  9  1  0  0  0
  8 27  1  0  0  0
  9 10  1  0  0  0
 10 11  1  0  0  0
 10 12  1  0  0  0
 12 13  1  0  0  0
 13 14  1  0  0  0
 13 26  1  0  0  0
 14 15  1  0  0  0
 15 16  1  0  0  0
 16 17  1  0  0  0
 17 18  1  0  0  0
 18 19  1  0  0  0
 18 25  1  0  0  0
 19 20  1  0  0  0
 20 21  1  0  0  0
 20 24  1  0  0  0
 21 22  1  0  0  0
 21 23  1  0  0  0
 23 51  1  0  0  0
 23 52  1  0  0  0
 24 53  1  0  0  0
 25 54  1  0  0  0
 26 55  1  0  0  0
 27 28  1  0  0  0
 28 29  2  0  0  0
 28 30  1  0  0  0
 30 31  1  0  0  0
 31 32  1  0  0  0
 31 36  1  0  0  0
 32 33  1  0  0  0
 33 34  2  0  0  0
 33 35  1  0  0  0
 35 56  1  0  0  0
 36 37  2  0  0  0
 36 38  1  0  0  0
 38 57  1  0  0  0
 39 40  1  0  0  0
 40 41  2  0  0  0
 40 42  1  0  0  0
 42 43  1  0  0  0
 43 44  1  0  0  0
 43 48  1  0  0  0
 44 45  1  0  0  0
 45 46  2  0  0  0
 45 47  1  0  0  0
 47 58  1  0  0  0
 48 49  2  0  0  0
 48 50  1  0  0  0
 50 59  1  0  0  0
M  END
>  <AUTHOR>
    GENERATED BY OPEN BABEL 2.4.1

>  <CHROM.1>
165.24676038,163.77560978,167.28705664,162.54466372,146.53871869,89.29887247
54.25818347,101.52226158,68.63457656,-61.58054200,-62.86929590,-130.75966895
-65.56151219,-14.78463345,-82.50994745,158.97313240,48.82047217,98.78554065
69.40442742,91.29628359,-171.30317341,-71.77633682,78.77752812,38.21985073
-105.41277901,176.80558530,-163.28918646,117.98243634,162.56406594,-177.53653953
177.22115951,13.82816243,-69.66780394,34.85960674,81.24418251,175.49862375
145.88962481,177.60824093,-174.95582434,-2.38364712,-3.36753104,1.85264229
-2.60522225,-0.08294025,0.07950071

>  <COMPND>
    UNNAMED

>  <MASTER>
        0    0    0    0    0    0    0    0  109    0  109    0

>  <Name>
FB1.pdb

>  <RI>
0

>  <Rbt.Current_Directory>
/home/fc/tossine/F10/p3/1_clust04

>  <Rbt.Executable>
rbdock/0.1.0

>  <Rbt.Library>
librxdock.so/0.1.0

>  <Rbt.Parameter_File>
/cluster/rxdock/data/scripts/dock.prm

>  <Rbt.Receptor>
rx_4.prm

>  <SCORE>
14.5439

>  <SCORE.INTER>
6.90662

>  <SCORE.INTER.CONST>
1

>  <SCORE.INTER.POLAR>
-1.68436

>  <SCORE.INTER.REPUL>
0.949001

>  <SCORE.INTER.ROT>
32

>  <SCORE.INTER.VDW>
-29.5116

>  <SCORE.INTER.norm>
0.138132

>  <SCORE.INTRA>
7.38443

>  <SCORE.INTRA.DIHEDRAL>
20.4083

>  <SCORE.INTRA.DIHEDRAL.0>
47.3121

>  <SCORE.INTRA.POLAR>
0.566363

>  <SCORE.INTRA.POLAR.0>
-1.47808

>  <SCORE.INTRA.REPUL>
0

>  <SCORE.INTRA.REPUL.0>
0

>  <SCORE.INTRA.VDW>
-4.74534

>  <SCORE.INTRA.VDW.0>
-2.78316

>  <SCORE.INTRA.norm>
0.147689

>  <SCORE.RESTR>
0.252875

>  <SCORE.RESTR.CAVITY>
0.252875

>  <SCORE.RESTR.norm>
0.00505749

>  <SCORE.SYSTEM>
0

>  <SCORE.SYSTEM.CONST>
0

>  <SCORE.SYSTEM.DIHEDRAL>
0

>  <SCORE.SYSTEM.norm>
0

>  <SCORE.heavy>
50

>  <SCORE.norm>
0.290878

$$$$
