FB1.pdb
  RxDock  10092020103D
librxdock.so/0.1.0
 59 58  0  0  0  0  0  0  0  0999 V2000
   -8.3131   -9.5824    1.0114 C   0  0  0  0  0  0
   -7.0893   -9.1053    0.2329 C   0  0  0  0  0  0
   -6.4466   -7.8695    0.8839 C   0  0  0  0  0  0
   -5.8018   -8.1623    2.2617 C   0  0  0  0  0  0
   -5.3076   -6.8954    3.0435 C   0  0  0  0  0  0
   -4.7727   -7.3525    4.4203 C   0  0  0  0  0  0
   -4.2131   -6.0549    2.2601 C   0  0  0  0  0  0
   -3.8133   -4.6313    2.8762 C   0  0  0  0  0  0
   -2.3755   -3.9603    2.7719 C   0  0  0  0  0  0
   -1.4499   -4.0746    4.1326 C   0  0  0  0  0  0
   -1.0044   -5.5269    4.2956 C   0  0  0  0  0  0
   -0.1780   -3.1141    4.2005 C   0  0  0  0  0  0
   -0.2311   -1.5180    3.9394 C   0  0  0  0  0  0
   -0.9059   -0.8965    2.6688 C   0  0  0  0  0  0
   -0.6911    0.6593    2.3816 C   0  0  0  0  0  0
   -1.0662    1.8103    3.3961 C   0  0  0  0  0  0
   -2.5001    1.8728    3.9855 C   0  0  0  0  0  0
   -2.8034    3.0602    4.9791 C   0  0  0  0  0  0
   -1.5935    3.6717    5.6965 C   0  0  0  0  0  0
   -1.7946    4.9998    6.4800 C   0  0  0  0  0  0
   -2.9201    5.1253    7.5490 C   0  0  0  0  0  0
   -2.8388    6.3265    8.4807 C   0  0  0  0  0  0
   -4.2526    5.0332    6.9225 N   0  0  0  0  0  0
   -0.5573    5.1845    7.2141 O   0  0  0  0  0  0
   -3.4657    4.0940    4.2426 O   0  0  0  0  0  0
   -0.9672   -0.9856    5.0535 O   0  0  0  0  0  0
   -4.7084   -3.6601    2.2695 O   0  0  0  0  0  0
   -5.9408   -3.5259    2.8249 C   0  0  0  0  0  0
   -6.3526   -4.1068    3.8111 O   0  0  0  0  0  0
   -6.6869   -2.4569    2.0753 C   0  0  0  0  0  0
   -7.8264   -1.8414    2.9030 C   0  0  0  0  0  0
   -7.3146   -0.8993    4.0003 C   0  0  0  0  0  0
   -8.4468   -0.4189    4.8781 C   0  0  0  0  0  0
   -8.8264    0.7464    4.9185 O   0  0  0  0  0  0
   -9.0033   -1.3931    5.6132 O   0  0  0  0  0  0
   -8.6983   -1.0636    1.9076 C   0  0  0  0  0  0
   -9.0108    0.1066    2.0672 O   0  0  0  0  0  0
   -9.1327   -1.7895    0.8682 O   0  0  0  0  0  0
   -3.0201   -6.8818    1.9552 O   0  0  0  0  0  0
   -2.9995   -7.5970    0.7695 C   0  0  0  0  0  0
   -3.5965   -7.2739   -0.2491 O   0  0  0  0  0  0
   -2.1341   -8.8605    0.8647 C   0  0  0  0  0  0
   -0.8525   -8.7388    1.7463 C   0  0  0  0  0  0
    0.0012  -10.0021    1.9599 C   0  0  0  0  0  0
   -0.3357  -11.1068    1.0004 C   0  0  0  0  0  0
   -0.5932  -12.2632    1.3056 O   0  0  0  0  0  0
   -0.3484  -10.6922   -0.2756 O   0  0  0  0  0  0
    0.1019   -7.6120    1.3319 C   0  0  0  0  0  0
    0.0451   -7.0635    0.2491 O   0  0  0  0  0  0
    0.9500   -7.1885    2.2925 O   0  0  0  0  0  0
   -4.4108    5.8618    6.3508 H   0  0  0  0  0  0
   -4.9627    5.0802    7.6567 H   0  0  0  0  0  0
   -0.5257    4.4291    7.8383 H   0  0  0  0  0  0
   -4.2913    3.7261    3.8772 H   0  0  0  0  0  0
   -0.8312   -0.0235    5.0717 H   0  0  0  0  0  0
   -9.7237   -1.1070    6.2070 H   0  0  0  0  0  0
   -9.6506   -1.2776    0.1985 H   0  0  0  0  0  0
   -0.1296   -9.7365   -0.2630 H   0  0  0  0  0  0
    0.9094   -7.6878    3.1382 H   0  0  0  0  0  0
  1  2  1  0  0  0
  2  3  1  0  0  0
  3  4  1  0  0  0
  4  5  1  0  0  0
  5  6  1  0  0  0
  5  7  1  0  0  0
  7  8  1  0  0  0
  7 39  1  0  0  0
  8  9  1  0  0  0
  8 27  1  0  0  0
  9 10  1  0  0  0
 10 11  1  0  0  0
 10 12  1  0  0  0
 12 13  1  0  0  0
 13 14  1  0  0  0
 13 26  1  0  0  0
 14 15  1  0  0  0
 15 16  1  0  0  0
 16 17  1  0  0  0
 17 18  1  0  0  0
 18 19  1  0  0  0
 18 25  1  0  0  0
 19 20  1  0  0  0
 20 21  1  0  0  0
 20 24  1  0  0  0
 21 22  1  0  0  0
 21 23  1  0  0  0
 23 51  1  0  0  0
 23 52  1  0  0  0
 24 53  1  0  0  0
 25 54  1  0  0  0
 26 55  1  0  0  0
 27 28  1  0  0  0
 28 29  2  0  0  0
 28 30  1  0  0  0
 30 31  1  0  0  0
 31 32  1  0  0  0
 31 36  1  0  0  0
 32 33  1  0  0  0
 33 34  2  0  0  0
 33 35  1  0  0  0
 35 56  1  0  0  0
 36 37  2  0  0  0
 36 38  1  0  0  0
 38 57  1  0  0  0
 39 40  1  0  0  0
 40 41  2  0  0  0
 40 42  1  0  0  0
 42 43  1  0  0  0
 43 44  1  0  0  0
 43 48  1  0  0  0
 44 45  1  0  0  0
 45 46  2  0  0  0
 45 47  1  0  0  0
 47 58  1  0  0  0
 48 49  2  0  0  0
 48 50  1  0  0  0
 50 59  1  0  0  0
M  END
>  <AUTHOR>
    GENERATED BY OPEN BABEL 2.4.1

>  <CHROM.1>
67.45824454,-172.14947378,176.68636612,170.97069964,148.08506246,89.13604111
-101.81653543,82.72068583,71.03744340,51.06578625,-51.01438433,-169.82656159
165.41002424,-56.99831474,-53.21968963,-179.33519780,-23.86401742,169.02752124
59.87807501,52.86094857,166.25543013,-64.35776635,-68.45937631,2.76321483
-157.77594899,74.15119909,-174.45200826,-127.77647390,-113.05515451,178.55163823
-176.60834829,27.92369417,-35.64669112,175.75305193,14.62566172,-16.37290400
-128.51851790,-0.18628441,3.99474272,-3.65172325,-3.22943359,3.14340687,1.48822023
0.08845115,-2.79031678

>  <COMPND>
    UNNAMED

>  <MASTER>
        0    0    0    0    0    0    0    0  109    0  109    0

>  <Name>
FB1.pdb

>  <RI>
0

>  <Rbt.Current_Directory>
/home/fc/tossine/F10/p3/1_clust04

>  <Rbt.Executable>
rbdock/0.1.0

>  <Rbt.Library>
librxdock.so/0.1.0

>  <Rbt.Parameter_File>
/cluster/rxdock/data/scripts/dock.prm

>  <Rbt.Receptor>
rx_2.prm

>  <SCORE>
1.18874

>  <SCORE.INTER>
-3.4523

>  <SCORE.INTER.CONST>
1

>  <SCORE.INTER.POLAR>
-2.0646

>  <SCORE.INTER.REPUL>
0.346414

>  <SCORE.INTER.ROT>
32

>  <SCORE.INTER.VDW>
-35.5647

>  <SCORE.INTER.norm>
-0.069046

>  <SCORE.INTRA>
3.78091

>  <SCORE.INTRA.DIHEDRAL>
-6.24046

>  <SCORE.INTRA.DIHEDRAL.0>
47.3121

>  <SCORE.INTRA.POLAR>
1.47808

>  <SCORE.INTRA.POLAR.0>
-1.47808

>  <SCORE.INTRA.REPUL>
0

>  <SCORE.INTRA.REPUL.0>
0

>  <SCORE.INTRA.VDW>
1.87568

>  <SCORE.INTRA.VDW.0>
-2.78316

>  <SCORE.INTRA.norm>
0.0756183

>  <SCORE.RESTR>
0.860127

>  <SCORE.RESTR.CAVITY>
0.860127

>  <SCORE.RESTR.norm>
0.0172025

>  <SCORE.SYSTEM>
0

>  <SCORE.SYSTEM.CONST>
0

>  <SCORE.SYSTEM.DIHEDRAL>
0

>  <SCORE.SYSTEM.norm>
0

>  <SCORE.heavy>
50

>  <SCORE.norm>
0.0237748

$$$$
