FB1.pdb
  RxDock  10092021523D
librxdock.so/0.1.0
 59 58  0  0  0  0  0  0  0  0999 V2000
    7.0145   -0.4272    4.7029 C   0  0  0  0  0  0
    5.5984    0.1037    4.9136 C   0  0  0  0  0  0
    4.7601    0.0156    3.6277 C   0  0  0  0  0  0
    3.2899   -0.4045    3.8765 C   0  0  0  0  0  0
    2.3025    0.7805    4.1616 C   0  0  0  0  0  0
    2.2037    1.6479    2.8855 C   0  0  0  0  0  0
    0.8652    0.3064    4.6382 C   0  0  0  0  0  0
   -0.1941    1.4524    4.9997 C   0  0  0  0  0  0
   -0.2685    2.8814    4.3064 C   0  0  0  0  0  0
    0.3842    4.1182    5.1814 C   0  0  0  0  0  0
    1.6381    4.6125    4.4621 C   0  0  0  0  0  0
   -0.5810    5.3521    5.4828 C   0  0  0  0  0  0
   -0.0643    6.8538    5.7935 C   0  0  0  0  0  0
    0.6601    7.7326    4.7170 C   0  0  0  0  0  0
    0.0170    7.8268    3.2586 C   0  0  0  0  0  0
    0.1890    9.0621    2.2896 C   0  0  0  0  0  0
    1.6088    9.6206    2.0073 C   0  0  0  0  0  0
    2.1931   10.6316    3.0682 C   0  0  0  0  0  0
    2.9098   10.0119    4.2744 C   0  0  0  0  0  0
    2.9904   10.8388    5.5889 C   0  0  0  0  0  0
    3.8705   10.3514    6.7777 C   0  0  0  0  0  0
    3.5344    8.9827    7.3530 C   0  0  0  0  0  0
    5.3042   10.4452    6.4431 N   0  0  0  0  0  0
    3.5678   12.1082    5.1900 O   0  0  0  0  0  0
    3.1084   11.5008    2.3926 O   0  0  0  0  0  0
   -1.2503    7.5881    6.1412 O   0  0  0  0  0  0
   -1.5092    0.8753    4.7763 O   0  0  0  0  0  0
   -2.5826    1.6438    5.0964 C   0  0  0  0  0  0
   -2.5752    2.6283    5.8107 O   0  0  0  0  0  0
   -3.7761    1.1348    4.3362 C   0  0  0  0  0  0
   -5.0464    1.9545    4.6139 C   0  0  0  0  0  0
   -5.5001    1.8598    6.0763 C   0  0  0  0  0  0
   -6.4973    0.7405    6.2662 C   0  0  0  0  0  0
   -7.2913    0.6906    7.1994 O   0  0  0  0  0  0
   -6.4341   -0.1992    5.3114 O   0  0  0  0  0  0
   -4.6951    3.4076    4.2659 C   0  0  0  0  0  0
   -5.0545    4.3606    4.9406 O   0  0  0  0  0  0
   -4.0002    3.5516    3.1291 O   0  0  0  0  0  0
    0.2975   -0.6998    3.7080 O   0  0  0  0  0  0
   -0.7037   -1.5362    4.1728 C   0  0  0  0  0  0
   -0.7096   -2.0701    5.2743 O   0  0  0  0  0  0
   -1.8274   -1.7284    3.1459 C   0  0  0  0  0  0
   -1.8675   -3.1182    2.4379 C   0  0  0  0  0  0
   -3.2211   -3.6172    1.8999 C   0  0  0  0  0  0
   -3.3457   -5.1133    1.9223 C   0  0  0  0  0  0
   -2.9197   -5.8777    1.0673 O   0  0  0  0  0  0
   -3.9765   -5.5594    3.0193 O   0  0  0  0  0  0
   -0.8413   -3.2897    1.3110 C   0  0  0  0  0  0
   -0.5331   -4.3743    0.8581 O   0  0  0  0  0  0
   -0.3742   -2.1433    0.7734 O   0  0  0  0  0  0
    5.8438   10.5224    7.3041 H   0  0  0  0  0  0
    5.4677   11.3258    5.9499 H   0  0  0  0  0  0
    2.8239   12.6006    4.7832 H   0  0  0  0  0  0
    2.6113   12.0038    1.7215 H   0  0  0  0  0  0
   -1.5851    7.2373    6.9834 H   0  0  0  0  0  0
   -7.0541   -0.9457    5.4199 H   0  0  0  0  0  0
   -3.7300    4.4820    2.9288 H   0  0  0  0  0  0
   -4.1651   -4.7736    3.5744 H   0  0  0  0  0  0
    0.3581   -2.2510    0.1267 H   0  0  0  0  0  0
  1  2  1  0  0  0
  2  3  1  0  0  0
  3  4  1  0  0  0
  4  5  1  0  0  0
  5  6  1  0  0  0
  5  7  1  0  0  0
  7  8  1  0  0  0
  7 39  1  0  0  0
  8  9  1  0  0  0
  8 27  1  0  0  0
  9 10  1  0  0  0
 10 11  1  0  0  0
 10 12  1  0  0  0
 12 13  1  0  0  0
 13 14  1  0  0  0
 13 26  1  0  0  0
 14 15  1  0  0  0
 15 16  1  0  0  0
 16 17  1  0  0  0
 17 18  1  0  0  0
 18 19  1  0  0  0
 18 25  1  0  0  0
 19 20  1  0  0  0
 20 21  1  0  0  0
 20 24  1  0  0  0
 21 22  1  0  0  0
 21 23  1  0  0  0
 23 51  1  0  0  0
 23 52  1  0  0  0
 24 53  1  0  0  0
 25 54  1  0  0  0
 26 55  1  0  0  0
 27 28  1  0  0  0
 28 29  2  0  0  0
 28 30  1  0  0  0
 30 31  1  0  0  0
 31 32  1  0  0  0
 31 36  1  0  0  0
 32 33  1  0  0  0
 33 34  2  0  0  0
 33 35  1  0  0  0
 35 56  1  0  0  0
 36 37  2  0  0  0
 36 38  1  0  0  0
 38 57  1  0  0  0
 39 40  1  0  0  0
 40 41  2  0  0  0
 40 42  1  0  0  0
 42 43  1  0  0  0
 43 44  1  0  0  0
 43 48  1  0  0  0
 44 45  1  0  0  0
 45 46  2  0  0  0
 45 47  1  0  0  0
 47 58  1  0  0  0
 48 49  2  0  0  0
 48 50  1  0  0  0
 50 59  1  0  0  0
M  END
>  <AUTHOR>
    GENERATED BY OPEN BABEL 2.4.1

>  <CHROM.1>
140.82586978,88.60624310,65.53773552,178.01278094,32.06749091,158.72648237
-101.71826808,176.14277127,112.09702532,-155.59119201,66.70783374,47.34481008
67.06259485,152.15193302,50.41416816,-83.25918216,85.77913229,-155.50867275
62.49673967,-171.44283600,-59.08496388,78.49281213,155.56465891,-17.32637387
-179.15315098,-64.00970923,-92.30516794,-139.09612998,-157.89945351,178.67868669
-176.80028349,-42.01933454,106.67607495,153.93239634,-149.39535291,163.42659145
-83.29241417,-2.92138517,173.15100892,-0.39143883,2.77373998,4.19329746,-1.97211664
0.13741349,0.18706030

>  <COMPND>
    UNNAMED

>  <MASTER>
        0    0    0    0    0    0    0    0  109    0  109    0

>  <Name>
FB1.pdb

>  <RI>
0

>  <Rbt.Current_Directory>
/home/fc/tossine/F10/p3/1_clust04

>  <Rbt.Executable>
rbdock/0.1.0

>  <Rbt.Library>
librxdock.so/0.1.0

>  <Rbt.Parameter_File>
/cluster/rxdock/data/scripts/dock.prm

>  <Rbt.Receptor>
rx_4.prm

>  <SCORE>
24.0354

>  <SCORE.INTER>
0.137212

>  <SCORE.INTER.CONST>
1

>  <SCORE.INTER.POLAR>
-1.78818

>  <SCORE.INTER.REPUL>
0.111243

>  <SCORE.INTER.ROT>
32

>  <SCORE.INTER.VDW>
-31.7392

>  <SCORE.INTER.norm>
0.00274425

>  <SCORE.INTRA>
21.3896

>  <SCORE.INTRA.DIHEDRAL>
26.7888

>  <SCORE.INTRA.DIHEDRAL.0>
47.3121

>  <SCORE.INTRA.POLAR>
1.30748

>  <SCORE.INTRA.POLAR.0>
-1.47808

>  <SCORE.INTRA.REPUL>
0

>  <SCORE.INTRA.REPUL.0>
0

>  <SCORE.INTRA.VDW>
3.54979

>  <SCORE.INTRA.VDW.0>
-2.78316

>  <SCORE.INTRA.norm>
0.427793

>  <SCORE.RESTR>
2.50858

>  <SCORE.RESTR.CAVITY>
2.50858

>  <SCORE.RESTR.norm>
0.0501717

>  <SCORE.SYSTEM>
0

>  <SCORE.SYSTEM.CONST>
0

>  <SCORE.SYSTEM.DIHEDRAL>
0

>  <SCORE.SYSTEM.norm>
0

>  <SCORE.heavy>
50

>  <SCORE.norm>
0.480709

$$$$
