FB1.pdb
  RxDock  10092022003D
librxdock.so/0.1.0
 59 58  0  0  0  0  0  0  0  0999 V2000
    3.3887   -0.5964   -1.4959 C   0  0  0  0  0  0
    3.2298    0.2243   -0.2182 C   0  0  0  0  0  0
    1.7733    0.6680   -0.0040 C   0  0  0  0  0  0
    0.8873   -0.4185    0.6551 C   0  0  0  0  0  0
   -0.3107    0.1310    1.5056 C   0  0  0  0  0  0
   -1.2318    0.9515    0.5734 C   0  0  0  0  0  0
   -1.1279   -1.0037    2.2556 C   0  0  0  0  0  0
   -1.8003   -2.1366    1.3442 C   0  0  0  0  0  0
   -1.0077   -3.2702    0.5602 C   0  0  0  0  0  0
   -0.5000   -4.5371    1.4867 C   0  0  0  0  0  0
    0.6692   -5.2187    0.7778 C   0  0  0  0  0  0
   -0.0862   -4.1892    2.9876 C   0  0  0  0  0  0
   -1.0979   -4.2628    4.2483 C   0  0  0  0  0  0
   -2.0315   -5.4950    4.5056 C   0  0  0  0  0  0
   -1.3560   -6.9270    4.7112 C   0  0  0  0  0  0
   -0.7431   -7.7964    3.5437 C   0  0  0  0  0  0
   -1.0290   -7.4069    2.0692 C   0  0  0  0  0  0
   -0.6262   -8.4639    0.9694 C   0  0  0  0  0  0
   -1.2962   -9.8398    1.0718 C   0  0  0  0  0  0
   -2.1347  -10.3434   -0.1371 C   0  0  0  0  0  0
   -1.8016  -11.7030   -0.8197 C   0  0  0  0  0  0
   -1.4227  -12.8508    0.1057 C   0  0  0  0  0  0
   -2.8788  -12.1047   -1.7442 N   0  0  0  0  0  0
   -3.4767  -10.5061    0.3886 O   0  0  0  0  0  0
   -0.9298   -7.9046   -0.3130 O   0  0  0  0  0  0
   -0.2507   -4.1855    5.4071 O   0  0  0  0  0  0
   -2.7107   -2.8673    2.2101 O   0  0  0  0  0  0
   -3.9485   -3.1345    1.7185 C   0  0  0  0  0  0
   -4.3237   -2.9522    0.5760 O   0  0  0  0  0  0
   -4.7585   -3.7931    2.8009 C   0  0  0  0  0  0
   -4.8037   -5.3227    2.6566 C   0  0  0  0  0  0
   -4.9346   -6.0378    4.0075 C   0  0  0  0  0  0
   -4.7603   -7.5308    3.8531 C   0  0  0  0  0  0
   -5.3608   -8.3575    4.5311 O   0  0  0  0  0  0
   -3.8828   -7.8703    2.8972 O   0  0  0  0  0  0
   -6.0262   -5.6278    1.7801 C   0  0  0  0  0  0
   -6.9214   -4.8209    1.5798 O   0  0  0  0  0  0
   -6.0576   -6.8744    1.2893 O   0  0  0  0  0  0
   -0.3391   -1.5842    3.3695 O   0  0  0  0  0  0
    0.0669   -0.7473    4.3956 C   0  0  0  0  0  0
    1.2321   -0.5561    4.7184 O   0  0  0  0  0  0
   -1.1164   -0.0705    5.0999 C   0  0  0  0  0  0
   -1.6485    1.2335    4.4285 C   0  0  0  0  0  0
   -3.1728    1.4262    4.3298 C   0  0  0  0  0  0
   -3.5592    2.7161    3.6655 C   0  0  0  0  0  0
   -3.6592    2.8956    2.4595 O   0  0  0  0  0  0
   -3.8145    3.6924    4.5498 O   0  0  0  0  0  0
   -1.0643    2.5303    5.0023 C   0  0  0  0  0  0
   -0.5885    3.4051    4.3058 O   0  0  0  0  0  0
   -1.2080    2.6908    6.3346 O   0  0  0  0  0  0
   -2.9569  -13.1208   -1.7449 H   0  0  0  0  0  0
   -2.5991  -11.8614   -2.6971 H   0  0  0  0  0  0
   -3.4066  -11.2563    1.0160 H   0  0  0  0  0  0
   -1.8940   -7.7703   -0.3658 H   0  0  0  0  0  0
    0.5416   -3.6765    5.1669 H   0  0  0  0  0  0
   -3.4842   -7.1220    2.4129 H   0  0  0  0  0  0
   -6.9371   -7.1523    0.9316 H   0  0  0  0  0  0
   -3.7696    3.2843    5.4402 H   0  0  0  0  0  0
   -1.0624    3.6049    6.6653 H   0  0  0  0  0  0
  1  2  1  0  0  0
  2  3  1  0  0  0
  3  4  1  0  0  0
  4  5  1  0  0  0
  5  6  1  0  0  0
  5  7  1  0  0  0
  7  8  1  0  0  0
  7 39  1  0  0  0
  8  9  1  0  0  0
  8 27  1  0  0  0
  9 10  1  0  0  0
 10 11  1  0  0  0
 10 12  1  0  0  0
 12 13  1  0  0  0
 13 14  1  0  0  0
 13 26  1  0  0  0
 14 15  1  0  0  0
 15 16  1  0  0  0
 16 17  1  0  0  0
 17 18  1  0  0  0
 18 19  1  0  0  0
 18 25  1  0  0  0
 19 20  1  0  0  0
 20 21  1  0  0  0
 20 24  1  0  0  0
 21 22  1  0  0  0
 21 23  1  0  0  0
 23 51  1  0  0  0
 23 52  1  0  0  0
 24 53  1  0  0  0
 25 54  1  0  0  0
 26 55  1  0  0  0
 27 28  1  0  0  0
 28 29  2  0  0  0
 28 30  1  0  0  0
 30 31  1  0  0  0
 31 32  1  0  0  0
 31 36  1  0  0  0
 32 33  1  0  0  0
 33 34  2  0  0  0
 33 35  1  0  0  0
 35 56  1  0  0  0
 36 37  2  0  0  0
 36 38  1  0  0  0
 38 57  1  0  0  0
 39 40  1  0  0  0
 40 41  2  0  0  0
 40 42  1  0  0  0
 42 43  1  0  0  0
 43 44  1  0  0  0
 43 48  1  0  0  0
 44 45  1  0  0  0
 45 46  2  0  0  0
 45 47  1  0  0  0
 47 58  1  0  0  0
 48 49  2  0  0  0
 48 50  1  0  0  0
 50 59  1  0  0  0
M  END
>  <AUTHOR>
    GENERATED BY OPEN BABEL 2.4.1

>  <CHROM.1>
82.64446824,151.67064623,60.76941498,-59.37560442,70.72678438,60.43517972
78.34736450,134.59057397,-157.55789065,92.53663992,47.48865355,59.45525333
28.76407294,-75.14275275,-12.33246544,-168.54085480,59.56167746,121.39428745
-63.49667852,123.58970951,40.23647616,-67.91943446,-146.66965697,8.56895797
-98.86230200,149.75573309,-171.16342727,-16.99016875,-145.90557376,-1.21324500
164.64111949,-120.98223254,-84.55767334,137.39697949,-179.99680984,129.81191922
84.98194099,-5.61300391,-164.07000275,-1.91055876,-3.75750367,2.33594214
-1.39856675,-0.47902909,-2.85129977

>  <COMPND>
    UNNAMED

>  <MASTER>
        0    0    0    0    0    0    0    0  109    0  109    0

>  <Name>
FB1.pdb

>  <RI>
0

>  <Rbt.Current_Directory>
/home/fc/tossine/F10/p3/1_clust04

>  <Rbt.Executable>
rbdock/0.1.0

>  <Rbt.Library>
librxdock.so/0.1.0

>  <Rbt.Parameter_File>
/cluster/rxdock/data/scripts/dock.prm

>  <Rbt.Receptor>
rx_4.prm

>  <SCORE>
31.2771

>  <SCORE.INTER>
2.99083

>  <SCORE.INTER.CONST>
1

>  <SCORE.INTER.POLAR>
-1.46374

>  <SCORE.INTER.REPUL>
0.236867

>  <SCORE.INTER.ROT>
32

>  <SCORE.INTER.VDW>
-30.6168

>  <SCORE.INTER.norm>
0.0598166

>  <SCORE.INTRA>
26.5789

>  <SCORE.INTRA.DIHEDRAL>
35.7604

>  <SCORE.INTRA.DIHEDRAL.0>
47.3121

>  <SCORE.INTRA.POLAR>
1.47808

>  <SCORE.INTRA.POLAR.0>
-1.47808

>  <SCORE.INTRA.REPUL>
0

>  <SCORE.INTRA.REPUL.0>
0

>  <SCORE.INTRA.VDW>
3.67323

>  <SCORE.INTRA.VDW.0>
-2.78316

>  <SCORE.INTRA.norm>
0.531578

>  <SCORE.RESTR>
1.70741

>  <SCORE.RESTR.CAVITY>
1.70741

>  <SCORE.RESTR.norm>
0.0341481

>  <SCORE.SYSTEM>
0

>  <SCORE.SYSTEM.CONST>
0

>  <SCORE.SYSTEM.DIHEDRAL>
0

>  <SCORE.SYSTEM.norm>
0

>  <SCORE.heavy>
50

>  <SCORE.norm>
0.625542

$$$$
