FB1.pdb
  RxDock  10092020123D
librxdock.so/0.1.0
 59 58  0  0  0  0  0  0  0  0999 V2000
    0.9876   -0.0710    1.9544 C   0  0  0  0  0  0
    0.6170    1.0383    2.9360 C   0  0  0  0  0  0
    0.9031    0.6304    4.3906 C   0  0  0  0  0  0
   -0.0420    1.3023    5.4177 C   0  0  0  0  0  0
    0.6799    2.1221    6.5435 C   0  0  0  0  0  0
    1.5813    3.1824    5.8698 C   0  0  0  0  0  0
   -0.3194    2.7987    7.5738 C   0  0  0  0  0  0
   -1.8058    3.0950    7.0553 C   0  0  0  0  0  0
   -2.8204    1.9986    6.5106 C   0  0  0  0  0  0
   -4.2313    2.5944    5.8975 C   0  0  0  0  0  0
   -3.8956    3.6639    4.8594 C   0  0  0  0  0  0
   -5.2282    1.5245    5.2601 C   0  0  0  0  0  0
   -6.5433    0.9508    6.0084 C   0  0  0  0  0  0
   -7.4523   -0.1588    5.3770 C   0  0  0  0  0  0
   -7.9666    0.0451    3.8793 C   0  0  0  0  0  0
   -8.8632   -0.9945    3.0984 C   0  0  0  0  0  0
  -10.4073   -0.9276    3.2358 C   0  0  0  0  0  0
  -11.0037   -1.2550    4.6593 C   0  0  0  0  0  0
  -10.3920   -2.4553    5.3926 C   0  0  0  0  0  0
  -10.5525   -3.8663    4.7590 C   0  0  0  0  0  0
  -11.9636   -4.5048    4.5959 C   0  0  0  0  0  0
  -12.0142   -5.8788    3.9425 C   0  0  0  0  0  0
  -12.6923   -4.5037    5.8787 N   0  0  0  0  0  0
  -10.0472   -3.7219    3.4071 O   0  0  0  0  0  0
  -10.8488   -0.0929    5.4810 O   0  0  0  0  0  0
   -6.0524    0.3814    7.2337 O   0  0  0  0  0  0
   -2.5080    3.7144    8.1669 O   0  0  0  0  0  0
   -2.4898    5.0713    8.2289 C   0  0  0  0  0  0
   -3.4374    5.8124    8.0494 O   0  0  0  0  0  0
   -1.1172    5.5097    8.6591 C   0  0  0  0  0  0
   -1.0945    6.9575    9.1748 C   0  0  0  0  0  0
   -0.0624    7.1691   10.2898 C   0  0  0  0  0  0
   -0.2356    6.1514   11.3932 C   0  0  0  0  0  0
   -1.1979    6.1319   12.1530 O   0  0  0  0  0  0
    0.7674    5.2639   11.4638 O   0  0  0  0  0  0
   -0.7448    7.8317    7.9625 C   0  0  0  0  0  0
   -1.4817    8.7087    7.5379 O   0  0  0  0  0  0
    0.4182    7.5209    7.3737 O   0  0  0  0  0  0
   -0.3178    2.0805    8.8715 O   0  0  0  0  0  0
    0.6677    2.3891    9.7944 C   0  0  0  0  0  0
    1.3707    3.3903    9.7539 O   0  0  0  0  0  0
    0.7902    1.3268   10.8948 C   0  0  0  0  0  0
    2.1194    1.3479   11.7117 C   0  0  0  0  0  0
    3.3146    2.1236   11.1284 C   0  0  0  0  0  0
    4.3971    1.2252   10.6034 C   0  0  0  0  0  0
    4.3224    0.5290    9.6002 O   0  0  0  0  0  0
    5.5088    1.2687   11.3534 O   0  0  0  0  0  0
    1.9632    1.7882   13.1725 C   0  0  0  0  0  0
    2.2127    1.0592   14.1121 O   0  0  0  0  0  0
    1.6298    3.0832   13.3548 O   0  0  0  0  0  0
  -13.6470   -4.8233    5.7207 H   0  0  0  0  0  0
  -12.7876   -3.5376    6.1995 H   0  0  0  0  0  0
  -10.0902   -4.6259    3.0298 H   0  0  0  0  0  0
   -9.8985    0.1187    5.5326 H   0  0  0  0  0  0
   -6.4127    0.9005    7.9721 H   0  0  0  0  0  0
    0.6614    4.5683   12.1410 H   0  0  0  0  0  0
    1.0264    6.9742    7.9303 H   0  0  0  0  0  0
    5.3001    1.8245   12.1337 H   0  0  0  0  0  0
    1.7658    3.4274   14.2655 H   0  0  0  0  0  0
  1  2  1  0  0  0
  2  3  1  0  0  0
  3  4  1  0  0  0
  4  5  1  0  0  0
  5  6  1  0  0  0
  5  7  1  0  0  0
  7  8  1  0  0  0
  7 39  1  0  0  0
  8  9  1  0  0  0
  8 27  1  0  0  0
  9 10  1  0  0  0
 10 11  1  0  0  0
 10 12  1  0  0  0
 12 13  1  0  0  0
 13 14  1  0  0  0
 13 26  1  0  0  0
 14 15  1  0  0  0
 15 16  1  0  0  0
 16 17  1  0  0  0
 17 18  1  0  0  0
 18 19  1  0  0  0
 18 25  1  0  0  0
 19 20  1  0  0  0
 20 21  1  0  0  0
 20 24  1  0  0  0
 21 22  1  0  0  0
 21 23  1  0  0  0
 23 51  1  0  0  0
 23 52  1  0  0  0
 24 53  1  0  0  0
 25 54  1  0  0  0
 26 55  1  0  0  0
 27 28  1  0  0  0
 28 29  2  0  0  0
 28 30  1  0  0  0
 30 31  1  0  0  0
 31 32  1  0  0  0
 31 36  1  0  0  0
 32 33  1  0  0  0
 33 34  2  0  0  0
 33 35  1  0  0  0
 35 56  1  0  0  0
 36 37  2  0  0  0
 36 38  1  0  0  0
 38 57  1  0  0  0
 39 40  1  0  0  0
 40 41  2  0  0  0
 40 42  1  0  0  0
 42 43  1  0  0  0
 43 44  1  0  0  0
 43 48  1  0  0  0
 44 45  1  0  0  0
 45 46  2  0  0  0
 45 47  1  0  0  0
 47 58  1  0  0  0
 48 49  2  0  0  0
 48 50  1  0  0  0
 50 59  1  0  0  0
M  END
>  <AUTHOR>
    GENERATED BY OPEN BABEL 2.4.1

>  <CHROM.1>
-150.55045504,-123.40420249,56.14655097,-24.56510767,59.01737705,83.54334699
-174.04630299,92.04795291,52.33454301,101.47983803,-176.54316003,-50.61228350
114.68096046,178.75371280,87.26485599,-66.10450350,-43.01493247,-63.65341311
-59.25208244,-64.07240032,178.98245219,176.14062397,173.35801658,110.76112081
-162.39129339,146.97984569,-52.06413355,119.82972314,-68.92791846,-177.23423179
-17.60964981,16.05683143,162.12770009,-16.50854713,-107.13723811,116.92306707
70.36658742,5.79297641,-164.11889493,-2.71562116,1.88231043,7.54573646,-2.69143069
-0.44320174,0.03592270

>  <COMPND>
    UNNAMED

>  <MASTER>
        0    0    0    0    0    0    0    0  109    0  109    0

>  <Name>
FB1.pdb

>  <RI>
0

>  <Rbt.Current_Directory>
/home/fc/tossine/F10/p3/1_clust04

>  <Rbt.Executable>
rbdock/0.1.0

>  <Rbt.Library>
librxdock.so/0.1.0

>  <Rbt.Parameter_File>
/cluster/rxdock/data/scripts/dock.prm

>  <Rbt.Receptor>
rx_2.prm

>  <SCORE>
38.0091

>  <SCORE.INTER>
12.8855

>  <SCORE.INTER.CONST>
1

>  <SCORE.INTER.POLAR>
-2.38259

>  <SCORE.INTER.REPUL>
1.8039

>  <SCORE.INTER.ROT>
32

>  <SCORE.INTER.VDW>
-25.4331

>  <SCORE.INTER.norm>
0.257711

>  <SCORE.INTRA>
22.5292

>  <SCORE.INTRA.DIHEDRAL>
35.7816

>  <SCORE.INTRA.DIHEDRAL.0>
47.3121

>  <SCORE.INTRA.POLAR>
0.54552

>  <SCORE.INTRA.POLAR.0>
-1.47808

>  <SCORE.INTRA.REPUL>
0

>  <SCORE.INTRA.REPUL.0>
0

>  <SCORE.INTRA.VDW>
2.78366

>  <SCORE.INTRA.VDW.0>
-2.78316

>  <SCORE.INTRA.norm>
0.450585

>  <SCORE.RESTR>
2.59432

>  <SCORE.RESTR.CAVITY>
2.59432

>  <SCORE.RESTR.norm>
0.0518864

>  <SCORE.SYSTEM>
0

>  <SCORE.SYSTEM.CONST>
0

>  <SCORE.SYSTEM.DIHEDRAL>
0

>  <SCORE.SYSTEM.norm>
0

>  <SCORE.heavy>
50

>  <SCORE.norm>
0.760182

$$$$
