FB1.pdb
  RxDock  10092019073D
librxdock.so/0.1.0
 59 58  0  0  0  0  0  0  0  0999 V2000
    1.3467    5.7756    5.2561 C   0  0  0  0  0  0
    1.0936    4.3051    4.9320 C   0  0  0  0  0  0
   -0.3782    3.9186    5.1523 C   0  0  0  0  0  0
   -0.8145    2.6664    4.3514 C   0  0  0  0  0  0
   -2.2106    2.0763    4.7550 C   0  0  0  0  0  0
   -3.2850    3.1614    4.5122 C   0  0  0  0  0  0
   -2.5761    0.7348    3.9903 C   0  0  0  0  0  0
   -1.4697   -0.4237    3.9880 C   0  0  0  0  0  0
   -1.4924   -1.7124    4.9190 C   0  0  0  0  0  0
   -0.4072   -2.8871    4.5141 C   0  0  0  0  0  0
   -0.4337   -3.9657    5.5958 C   0  0  0  0  0  0
   -0.6027   -3.5612    3.0816 C   0  0  0  0  0  0
   -2.0211   -4.0977    2.5168 C   0  0  0  0  0  0
   -2.1509   -4.8453    1.1456 C   0  0  0  0  0  0
   -0.9876   -5.8521    0.7188 C   0  0  0  0  0  0
   -0.5035   -7.0736    1.5953 C   0  0  0  0  0  0
   -1.5152   -7.7978    2.5224 C   0  0  0  0  0  0
   -3.0283   -7.7661    2.0769 C   0  0  0  0  0  0
   -3.5867   -9.0618    1.4753 C   0  0  0  0  0  0
   -4.6979   -8.9531    0.3928 C   0  0  0  0  0  0
   -6.1830   -8.7263    0.8032 C   0  0  0  0  0  0
   -6.4702   -7.4987    1.6564 C   0  0  0  0  0  0
   -7.0665   -8.7662   -0.3776 N   0  0  0  0  0  0
   -4.3403   -7.7821   -0.3849 O   0  0  0  0  0  0
   -3.8179   -7.4179    3.2193 O   0  0  0  0  0  0
   -2.4791   -5.0389    3.5022 O   0  0  0  0  0  0
   -1.4423   -0.9568    2.6362 O   0  0  0  0  0  0
   -0.3664   -0.6400    1.8698 C   0  0  0  0  0  0
    0.1419   -1.3432    1.0175 O   0  0  0  0  0  0
    0.0371    0.7756    2.1779 C   0  0  0  0  0  0
    1.0049    1.3542    1.1333 C   0  0  0  0  0  0
    2.4243    0.7881    1.2686 C   0  0  0  0  0  0
    3.1675    1.4468    2.4075 C   0  0  0  0  0  0
    4.2334    2.0372    2.2703 O   0  0  0  0  0  0
    2.5476    1.3262    3.5907 O   0  0  0  0  0  0
    0.4193    0.9821   -0.2359 C   0  0  0  0  0  0
    1.0603    0.4046   -1.1008 O   0  0  0  0  0  0
   -0.8437    1.3878   -0.4260 O   0  0  0  0  0  0
   -3.9077    0.2288    4.4034 O   0  0  0  0  0  0
   -4.4425   -0.8518    3.7219 C   0  0  0  0  0  0
   -3.7947   -1.6340    3.0386 O   0  0  0  0  0  0
   -5.9600   -0.9711    3.9154 C   0  0  0  0  0  0
   -6.6598    0.2654    4.5602 C   0  0  0  0  0  0
   -8.1684    0.4518    4.3157 C   0  0  0  0  0  0
   -8.9719   -0.7728    4.6462 C   0  0  0  0  0  0
   -8.5191   -1.8929    4.8387 O   0  0  0  0  0  0
  -10.2859   -0.5162    4.7341 O   0  0  0  0  0  0
   -6.4231    0.4178    6.0679 C   0  0  0  0  0  0
   -5.7991    1.3434    6.5481 O   0  0  0  0  0  0
   -7.0468   -0.4907    6.8470 O   0  0  0  0  0  0
   -6.9700   -7.8945   -0.8966 H   0  0  0  0  0  0
   -8.0379   -8.7767   -0.0586 H   0  0  0  0  0  0
   -4.4310   -7.0330    0.2412 H   0  0  0  0  0  0
   -3.6056   -6.4993    3.4673 H   0  0  0  0  0  0
   -3.1213   -4.5867    4.0744 H   0  0  0  0  0  0
    3.0166    1.7239    4.3492 H   0  0  0  0  0  0
   -1.1525    2.0792    0.2106 H   0  0  0  0  0  0
  -10.4032    0.4311    4.5099 H   0  0  0  0  0  0
   -6.8459   -0.4285    7.8072 H   0  0  0  0  0  0
  1  2  1  0  0  0
  2  3  1  0  0  0
  3  4  1  0  0  0
  4  5  1  0  0  0
  5  6  1  0  0  0
  5  7  1  0  0  0
  7  8  1  0  0  0
  7 39  1  0  0  0
  8  9  1  0  0  0
  8 27  1  0  0  0
  9 10  1  0  0  0
 10 11  1  0  0  0
 10 12  1  0  0  0
 12 13  1  0  0  0
 13 14  1  0  0  0
 13 26  1  0  0  0
 14 15  1  0  0  0
 15 16  1  0  0  0
 16 17  1  0  0  0
 17 18  1  0  0  0
 18 19  1  0  0  0
 18 25  1  0  0  0
 19 20  1  0  0  0
 20 21  1  0  0  0
 20 24  1  0  0  0
 21 22  1  0  0  0
 21 23  1  0  0  0
 23 51  1  0  0  0
 23 52  1  0  0  0
 24 53  1  0  0  0
 25 54  1  0  0  0
 26 55  1  0  0  0
 27 28  1  0  0  0
 28 29  2  0  0  0
 28 30  1  0  0  0
 30 31  1  0  0  0
 31 32  1  0  0  0
 31 36  1  0  0  0
 32 33  1  0  0  0
 33 34  2  0  0  0
 33 35  1  0  0  0
 35 56  1  0  0  0
 36 37  2  0  0  0
 36 38  1  0  0  0
 38 57  1  0  0  0
 39 40  1  0  0  0
 40 41  2  0  0  0
 40 42  1  0  0  0
 42 43  1  0  0  0
 43 44  1  0  0  0
 43 48  1  0  0  0
 44 45  1  0  0  0
 45 46  2  0  0  0
 45 47  1  0  0  0
 47 58  1  0  0  0
 48 49  2  0  0  0
 48 50  1  0  0  0
 50 59  1  0  0  0
M  END
>  <AUTHOR>
    GENERATED BY OPEN BABEL 2.4.1

>  <CHROM.1>
157.53755295,168.66329596,60.57856055,50.14873182,101.52482155,172.88557339
168.42774668,107.14672495,173.00380538,-47.49442932,-175.56297221,37.36483541
98.76456686,55.81476708,30.83362237,28.09843464,104.38452208,-148.53109182
66.66275483,-80.88361616,56.55149129,-65.47041231,-75.79463167,147.09083228
-165.60275815,-74.46742389,-78.14785821,-126.88579507,-122.47651078,178.56802826
16.36320736,19.15650638,12.40833462,157.68014762,52.12552833,114.01285705
-13.72726592,2.79152006,176.06757393,-2.58632009,-1.76339837,3.00526079,1.03268677
0.32654715,0.36044621

>  <COMPND>
    UNNAMED

>  <MASTER>
        0    0    0    0    0    0    0    0  109    0  109    0

>  <Name>
FB1.pdb

>  <RI>
0

>  <Rbt.Current_Directory>
/home/fc/tossine/F10/p3/1_clust04

>  <Rbt.Executable>
rbdock/0.1.0

>  <Rbt.Library>
librxdock.so/0.1.0

>  <Rbt.Parameter_File>
/cluster/rxdock/data/scripts/dock.prm

>  <Rbt.Receptor>
rx_1.prm

>  <SCORE>
22.595

>  <SCORE.INTER>
6.50443

>  <SCORE.INTER.CONST>
1

>  <SCORE.INTER.POLAR>
-2.12672

>  <SCORE.INTER.REPUL>
0.0570704

>  <SCORE.INTER.ROT>
32

>  <SCORE.INTER.VDW>
-23.9501

>  <SCORE.INTER.norm>
0.130089

>  <SCORE.INTRA>
15.8073

>  <SCORE.INTRA.DIHEDRAL>
16.4136

>  <SCORE.INTRA.DIHEDRAL.0>
47.3121

>  <SCORE.INTRA.POLAR>
0.478077

>  <SCORE.INTRA.POLAR.0>
-1.47808

>  <SCORE.INTRA.REPUL>
0

>  <SCORE.INTRA.REPUL.0>
0

>  <SCORE.INTRA.VDW>
5.97509

>  <SCORE.INTRA.VDW.0>
-2.78316

>  <SCORE.INTRA.norm>
0.316147

>  <SCORE.RESTR>
0.283209

>  <SCORE.RESTR.CAVITY>
0.283209

>  <SCORE.RESTR.norm>
0.00566417

>  <SCORE.SYSTEM>
0

>  <SCORE.SYSTEM.CONST>
0

>  <SCORE.SYSTEM.DIHEDRAL>
0

>  <SCORE.SYSTEM.norm>
0

>  <SCORE.heavy>
50

>  <SCORE.norm>
0.4519

$$$$
