FB1.pdb
  RxDock  10092021563D
librxdock.so/0.1.0
 59 58  0  0  0  0  0  0  0  0999 V2000
    0.0118   -2.9618    4.2472 C   0  0  0  0  0  0
   -0.9961   -2.0222    3.5895 C   0  0  0  0  0  0
   -1.4881   -0.9411    4.5660 C   0  0  0  0  0  0
   -2.6363   -0.0710    3.9966 C   0  0  0  0  0  0
   -3.2997    0.9066    5.0285 C   0  0  0  0  0  0
   -2.4467    2.1944    5.0950 C   0  0  0  0  0  0
   -4.8140    1.2454    4.6965 C   0  0  0  0  0  0
   -5.7268    0.0418    4.1632 C   0  0  0  0  0  0
   -5.1870   -1.3799    3.6991 C   0  0  0  0  0  0
   -6.3540   -2.5023    3.3836 C   0  0  0  0  0  0
   -6.8986   -2.2540    1.9779 C   0  0  0  0  0  0
   -5.9170   -4.0300    3.5258 C   0  0  0  0  0  0
   -5.5046   -4.9758    2.2793 C   0  0  0  0  0  0
   -5.0630   -6.4678    2.4668 C   0  0  0  0  0  0
   -5.0263   -7.4140    1.1814 C   0  0  0  0  0  0
   -4.0480   -8.6420    1.0095 C   0  0  0  0  0  0
   -2.5160   -8.3992    0.9686 C   0  0  0  0  0  0
   -1.6482   -9.4907    0.2306 C   0  0  0  0  0  0
   -0.5055  -10.1131    1.0425 C   0  0  0  0  0  0
    0.5178   -9.1615    1.7249 C   0  0  0  0  0  0
    0.5137   -7.6367    1.4079 C   0  0  0  0  0  0
    1.7742   -6.8654    1.7733 C   0  0  0  0  0  0
    0.1349   -7.3930    0.0031 N   0  0  0  0  0  0
    0.2160   -9.2514    3.1407 O   0  0  0  0  0  0
   -2.5257  -10.5382   -0.1965 O   0  0  0  0  0  0
   -6.6804   -5.0334    1.4542 O   0  0  0  0  0  0
   -6.6650   -0.2607    5.2313 O   0  0  0  0  0  0
   -7.9426    0.1721    5.0712 C   0  0  0  0  0  0
   -8.5695    0.8669    5.8481 O   0  0  0  0  0  0
   -8.4277   -0.2670    3.7172 C   0  0  0  0  0  0
   -9.9344   -0.5701    3.6997 C   0  0  0  0  0  0
  -10.4210   -1.0576    2.3289 C   0  0  0  0  0  0
  -10.0826   -0.0612    1.2445 C   0  0  0  0  0  0
   -9.5415    1.0180    1.4598 O   0  0  0  0  0  0
  -10.4300   -0.4705    0.0154 O   0  0  0  0  0  0
  -10.1573   -1.6622    4.7550 C   0  0  0  0  0  0
  -10.9699   -1.5582    5.6612 O   0  0  0  0  0  0
   -9.3495   -2.7243    4.6308 O   0  0  0  0  0  0
   -5.4573    1.9750    5.8162 O   0  0  0  0  0  0
   -5.1249    1.6184    7.1125 C   0  0  0  0  0  0
   -4.3196    0.7458    7.4100 O   0  0  0  0  0  0
   -5.8837    2.4458    8.1584 C   0  0  0  0  0  0
   -6.6586    1.6274    9.2374 C   0  0  0  0  0  0
   -7.9245    2.2543    9.8497 C   0  0  0  0  0  0
   -7.8109    3.7394   10.0391 C   0  0  0  0  0  0
   -8.1570    4.5903    9.2312 O   0  0  0  0  0  0
   -7.2908    4.0663   11.2320 O   0  0  0  0  0  0
   -7.0196    0.1977    8.8158 C   0  0  0  0  0  0
   -8.0114   -0.0685    8.1659 O   0  0  0  0  0  0
   -6.1041   -0.7453    9.1221 O   0  0  0  0  0  0
    0.9097   -6.9377   -0.4776 H   0  0  0  0  0  0
   -0.6253   -6.7096   -0.0164 H   0  0  0  0  0  0
    0.9931   -8.8507    3.5845 H   0  0  0  0  0  0
   -3.1077  -10.1824   -0.8930 H   0  0  0  0  0  0
   -7.3640   -5.5255    1.9389 H   0  0  0  0  0  0
  -10.2133    0.1496   -0.7070 H   0  0  0  0  0  0
   -8.8190   -2.7406    3.7959 H   0  0  0  0  0  0
   -6.8444    3.2631   11.5739 H   0  0  0  0  0  0
   -5.2737   -0.4085    9.5260 H   0  0  0  0  0  0
  1  2  1  0  0  0
  2  3  1  0  0  0
  3  4  1  0  0  0
  4  5  1  0  0  0
  5  6  1  0  0  0
  5  7  1  0  0  0
  7  8  1  0  0  0
  7 39  1  0  0  0
  8  9  1  0  0  0
  8 27  1  0  0  0
  9 10  1  0  0  0
 10 11  1  0  0  0
 10 12  1  0  0  0
 12 13  1  0  0  0
 13 14  1  0  0  0
 13 26  1  0  0  0
 14 15  1  0  0  0
 15 16  1  0  0  0
 16 17  1  0  0  0
 17 18  1  0  0  0
 18 19  1  0  0  0
 18 25  1  0  0  0
 19 20  1  0  0  0
 20 21  1  0  0  0
 20 24  1  0  0  0
 21 22  1  0  0  0
 21 23  1  0  0  0
 23 51  1  0  0  0
 23 52  1  0  0  0
 24 53  1  0  0  0
 25 54  1  0  0  0
 26 55  1  0  0  0
 27 28  1  0  0  0
 28 29  2  0  0  0
 28 30  1  0  0  0
 30 31  1  0  0  0
 31 32  1  0  0  0
 31 36  1  0  0  0
 32 33  1  0  0  0
 33 34  2  0  0  0
 33 35  1  0  0  0
 35 56  1  0  0  0
 36 37  2  0  0  0
 36 38  1  0  0  0
 38 57  1  0  0  0
 39 40  1  0  0  0
 40 41  2  0  0  0
 40 42  1  0  0  0
 42 43  1  0  0  0
 43 44  1  0  0  0
 43 48  1  0  0  0
 44 45  1  0  0  0
 45 46  2  0  0  0
 45 47  1  0  0  0
 47 58  1  0  0  0
 48 49  2  0  0  0
 48 50  1  0  0  0
 50 59  1  0  0  0
M  END
>  <AUTHOR>
    GENERATED BY OPEN BABEL 2.4.1

>  <CHROM.1>
-173.05442323,171.83244947,84.04629142,39.91838844,-11.46108653,-37.39753141
172.29525713,104.13014941,81.13176490,-99.09731094,179.17580700,165.10765072
-67.81245799,150.71570468,-63.04620920,-155.66378352,-125.00641363,-52.85198237
67.70019706,-9.47364483,-162.13792048,165.50663003,-118.01625422,-125.24882207
147.52819805,-178.31224795,-56.14201550,126.29565117,-2.95038422,-179.30054509
-9.59348195,0.84214554,126.70770246,-150.66830198,-36.56461543,-84.32403471
91.94274447,18.04556226,-4.15766216,-5.37128635,-2.16742257,4.28256371,-1.05140043
-0.29986292,0.71854828

>  <COMPND>
    UNNAMED

>  <MASTER>
        0    0    0    0    0    0    0    0  109    0  109    0

>  <Name>
FB1.pdb

>  <RI>
0

>  <Rbt.Current_Directory>
/home/fc/tossine/F10/p3/1_clust04

>  <Rbt.Executable>
rbdock/0.1.0

>  <Rbt.Library>
librxdock.so/0.1.0

>  <Rbt.Parameter_File>
/cluster/rxdock/data/scripts/dock.prm

>  <Rbt.Receptor>
rx_4.prm

>  <SCORE>
43.1838

>  <SCORE.INTER>
10.1845

>  <SCORE.INTER.CONST>
1

>  <SCORE.INTER.POLAR>
-3.48542

>  <SCORE.INTER.REPUL>
1.47785

>  <SCORE.INTER.ROT>
32

>  <SCORE.INTER.VDW>
-22.7543

>  <SCORE.INTER.norm>
0.203691

>  <SCORE.INTRA>
30.3506

>  <SCORE.INTRA.DIHEDRAL>
32.9963

>  <SCORE.INTRA.DIHEDRAL.0>
47.3121

>  <SCORE.INTRA.POLAR>
1.47808

>  <SCORE.INTRA.POLAR.0>
-1.47808

>  <SCORE.INTRA.REPUL>
0

>  <SCORE.INTRA.REPUL.0>
0

>  <SCORE.INTRA.VDW>
8.827

>  <SCORE.INTRA.VDW.0>
-2.78316

>  <SCORE.INTRA.norm>
0.607013

>  <SCORE.RESTR>
2.64865

>  <SCORE.RESTR.CAVITY>
2.64865

>  <SCORE.RESTR.norm>
0.0529729

>  <SCORE.SYSTEM>
0

>  <SCORE.SYSTEM.CONST>
0

>  <SCORE.SYSTEM.DIHEDRAL>
0

>  <SCORE.SYSTEM.norm>
0

>  <SCORE.heavy>
50

>  <SCORE.norm>
0.863676

$$$$
