FB1.pdb
  RxDock  10092021013D
librxdock.so/0.1.0
 59 58  0  0  0  0  0  0  0  0999 V2000
    7.4901    0.0363    5.0568 C   0  0  0  0  0  0
    6.0618   -0.1195    4.5400 C   0  0  0  0  0  0
    5.0503    0.6223    5.4293 C   0  0  0  0  0  0
    3.5803    0.4422    4.9753 C   0  0  0  0  0  0
    2.8874    1.7456    4.4447 C   0  0  0  0  0  0
    3.5635    2.1475    3.1136 C   0  0  0  0  0  0
    1.3179    1.5991    4.2624 C   0  0  0  0  0  0
    0.4051    2.7709    4.8622 C   0  0  0  0  0  0
   -0.1610    2.8207    6.3472 C   0  0  0  0  0  0
   -1.3575    1.7338    6.6764 C   0  0  0  0  0  0
   -1.0113    0.4103    5.9963 C   0  0  0  0  0  0
   -1.6688    1.4767    8.2197 C   0  0  0  0  0  0
   -0.5322    1.3162    9.3604 C   0  0  0  0  0  0
    0.3645    2.5137    9.8272 C   0  0  0  0  0  0
    1.4653    2.2423   10.9514 C   0  0  0  0  0  0
    2.4743    3.3322   11.4886 C   0  0  0  0  0  0
    2.9991    3.2362   12.9456 C   0  0  0  0  0  0
    2.9235    1.8170   13.6307 C   0  0  0  0  0  0
    1.5299    1.1841   13.7304 C   0  0  0  0  0  0
    1.4076   -0.2352   14.3540 C   0  0  0  0  0  0
    0.0082   -0.8664   14.6163 C   0  0  0  0  0  0
   -0.0672   -1.9123   15.7198 C   0  0  0  0  0  0
   -1.0124    0.1808   14.8117 N   0  0  0  0  0  0
    2.0422   -1.1155   13.3916 O   0  0  0  0  0  0
    3.7755    0.9280   12.9004 O   0  0  0  0  0  0
   -1.2458    0.9008   10.5372 O   0  0  0  0  0  0
    1.1771    3.9953    4.7303 O   0  0  0  0  0  0
    0.5107    5.1664    4.9029 C   0  0  0  0  0  0
   -0.6904    5.2967    5.0433 O   0  0  0  0  0  0
    1.5187    6.2786    4.9946 C   0  0  0  0  0  0
    0.8626    7.6562    5.1788 C   0  0  0  0  0  0
    0.1880    7.8086    6.5481 C   0  0  0  0  0  0
    1.2089    7.8037    7.6622 C   0  0  0  0  0  0
    1.4303    6.8308    8.3750 O   0  0  0  0  0  0
    1.8562    8.9704    7.7989 O   0  0  0  0  0  0
    1.9926    8.6847    5.0326 C   0  0  0  0  0  0
    1.8694    9.7264    4.4065 O   0  0  0  0  0  0
    3.1473    8.3232    5.6087 O   0  0  0  0  0  0
    0.9690    1.2904    2.8542 O   0  0  0  0  0  0
   -0.3462    0.9760    2.5549 C   0  0  0  0  0  0
   -1.3229    1.4976    3.0766 O   0  0  0  0  0  0
   -0.4559   -0.1140    1.4805 C   0  0  0  0  0  0
   -1.5659   -1.1855    1.7136 C   0  0  0  0  0  0
   -1.4573   -2.5175    0.9492 C   0  0  0  0  0  0
   -2.7608   -3.2591    0.8747 C   0  0  0  0  0  0
   -3.8225   -2.8857    1.3541 O   0  0  0  0  0  0
   -2.6588   -4.4087    0.1904 O   0  0  0  0  0  0
   -1.8223   -1.5281    3.1864 C   0  0  0  0  0  0
   -2.9052   -1.3846    3.7187 O   0  0  0  0  0  0
   -0.7892   -2.1049    3.8354 O   0  0  0  0  0  0
   -0.8562    0.6360   15.7099 H   0  0  0  0  0  0
   -1.9274   -0.2671   14.8989 H   0  0  0  0  0  0
    2.3081   -1.9014   13.9141 H   0  0  0  0  0  0
    4.6962    1.2289   13.0120 H   0  0  0  0  0  0
   -1.8569    1.6144   10.7859 H   0  0  0  0  0  0
    1.4659    9.7227    7.3139 H   0  0  0  0  0  0
    3.8754    8.9870    5.5197 H   0  0  0  0  0  0
   -3.5720   -4.7421    0.0629 H   0  0  0  0  0  0
   -0.9937   -2.4382    4.7372 H   0  0  0  0  0  0
  1  2  1  0  0  0
  2  3  1  0  0  0
  3  4  1  0  0  0
  4  5  1  0  0  0
  5  6  1  0  0  0
  5  7  1  0  0  0
  7  8  1  0  0  0
  7 39  1  0  0  0
  8  9  1  0  0  0
  8 27  1  0  0  0
  9 10  1  0  0  0
 10 11  1  0  0  0
 10 12  1  0  0  0
 12 13  1  0  0  0
 13 14  1  0  0  0
 13 26  1  0  0  0
 14 15  1  0  0  0
 15 16  1  0  0  0
 16 17  1  0  0  0
 17 18  1  0  0  0
 18 19  1  0  0  0
 18 25  1  0  0  0
 19 20  1  0  0  0
 20 21  1  0  0  0
 20 24  1  0  0  0
 21 22  1  0  0  0
 21 23  1  0  0  0
 23 51  1  0  0  0
 23 52  1  0  0  0
 24 53  1  0  0  0
 25 54  1  0  0  0
 26 55  1  0  0  0
 27 28  1  0  0  0
 28 29  2  0  0  0
 28 30  1  0  0  0
 30 31  1  0  0  0
 31 32  1  0  0  0
 31 36  1  0  0  0
 32 33  1  0  0  0
 33 34  2  0  0  0
 33 35  1  0  0  0
 35 56  1  0  0  0
 36 37  2  0  0  0
 36 38  1  0  0  0
 38 57  1  0  0  0
 39 40  1  0  0  0
 40 41  2  0  0  0
 40 42  1  0  0  0
 42 43  1  0  0  0
 43 44  1  0  0  0
 43 48  1  0  0  0
 44 45  1  0  0  0
 45 46  2  0  0  0
 45 47  1  0  0  0
 47 58  1  0  0  0
 48 49  2  0  0  0
 48 50  1  0  0  0
 50 59  1  0  0  0
M  END
>  <AUTHOR>
    GENERATED BY OPEN BABEL 2.4.1

>  <CHROM.1>
-177.59096111,-113.20688616,67.79397971,132.48376928,-88.52743213,172.52505555
-71.26114317,166.21509405,39.96826177,-42.18592528,69.27882365,-179.47369686
-63.24814310,177.83356308,150.75027909,21.52756394,-58.51235377,177.97046244
65.87490935,173.64172050,-154.39322266,156.74385051,-71.02277583,-6.78870079
179.46958602,68.37263917,66.65073399,137.71073320,-101.96812775,12.88057606
-179.68346911,37.17355908,139.55339339,-161.29355832,-160.45743228,120.92890705
0.01662512,-170.58719745,-171.75769640,0.76725661,1.98984216,6.79635425,-2.26301499
1.23158698,2.00989735

>  <COMPND>
    UNNAMED

>  <MASTER>
        0    0    0    0    0    0    0    0  109    0  109    0

>  <Name>
FB1.pdb

>  <RI>
0

>  <Rbt.Current_Directory>
/home/fc/tossine/F10/p3/1_clust04

>  <Rbt.Executable>
rbdock/0.1.0

>  <Rbt.Library>
librxdock.so/0.1.0

>  <Rbt.Parameter_File>
/cluster/rxdock/data/scripts/dock.prm

>  <Rbt.Receptor>
rx_3.prm

>  <SCORE>
15.755

>  <SCORE.INTER>
-0.938756

>  <SCORE.INTER.CONST>
1

>  <SCORE.INTER.POLAR>
-3.0064

>  <SCORE.INTER.REPUL>
0.107315

>  <SCORE.INTER.ROT>
32

>  <SCORE.INTER.VDW>
-28.6536

>  <SCORE.INTER.norm>
-0.0187751

>  <SCORE.INTRA>
11.2834

>  <SCORE.INTRA.DIHEDRAL>
7.44875

>  <SCORE.INTRA.DIHEDRAL.0>
47.3121

>  <SCORE.INTRA.POLAR>
1.47808

>  <SCORE.INTRA.POLAR.0>
-1.47808

>  <SCORE.INTRA.REPUL>
0.0430102

>  <SCORE.INTRA.REPUL.0>
0

>  <SCORE.INTRA.VDW>
2.31851

>  <SCORE.INTRA.VDW.0>
-2.78316

>  <SCORE.INTRA.norm>
0.225668

>  <SCORE.RESTR>
5.41039

>  <SCORE.RESTR.CAVITY>
5.41039

>  <SCORE.RESTR.norm>
0.108208

>  <SCORE.SYSTEM>
0

>  <SCORE.SYSTEM.CONST>
0

>  <SCORE.SYSTEM.DIHEDRAL>
0

>  <SCORE.SYSTEM.norm>
0

>  <SCORE.heavy>
50

>  <SCORE.norm>
0.315101

$$$$
