FB1.pdb
  RxDock  10092021013D
librxdock.so/0.1.0
 59 58  0  0  0  0  0  0  0  0999 V2000
   -2.4528   -9.0810    6.1026 C   0  0  0  0  0  0
   -2.4394   -9.4059    4.6108 C   0  0  0  0  0  0
   -3.0514   -8.2695    3.7751 C   0  0  0  0  0  0
   -3.1389   -8.5933    2.2627 C   0  0  0  0  0  0
   -4.0325   -7.6119    1.4267 C   0  0  0  0  0  0
   -5.4575   -7.6226    2.0266 C   0  0  0  0  0  0
   -3.4570   -6.1348    1.3573 C   0  0  0  0  0  0
   -3.5460   -5.2577    2.6949 C   0  0  0  0  0  0
   -2.3000   -4.7693    3.5534 C   0  0  0  0  0  0
   -1.0802   -4.0774    2.6848 C   0  0  0  0  0  0
   -1.6821   -3.0208    1.7599 C   0  0  0  0  0  0
    0.1080   -3.4326    3.5317 C   0  0  0  0  0  0
   -0.0225   -2.0606    4.3799 C   0  0  0  0  0  0
    0.0543   -0.6469    3.7078 C   0  0  0  0  0  0
    0.0571    0.6410    4.6514 C   0  0  0  0  0  0
    0.3893    2.1039    4.1573 C   0  0  0  0  0  0
    0.0540    3.3136    5.0693 C   0  0  0  0  0  0
    1.0751    4.5162    5.0500 C   0  0  0  0  0  0
    0.8359    5.5935    3.9848 C   0  0  0  0  0  0
   -0.0140    6.8370    4.3716 C   0  0  0  0  0  0
    0.6645    8.1032    4.9731 C   0  0  0  0  0  0
   -0.2664    9.2142    5.4384 C   0  0  0  0  0  0
    1.6175    7.7336    6.0369 N   0  0  0  0  0  0
   -0.6019    7.2833    3.1230 O   0  0  0  0  0  0
    1.0496    5.1379    6.3394 O   0  0  0  0  0  0
   -1.3273   -2.1202    4.9804 O   0  0  0  0  0  0
   -4.2355   -4.0310    2.3313 O   0  0  0  0  0  0
   -5.5914   -4.0819    2.2647 C   0  0  0  0  0  0
   -6.2791   -5.0810    2.3560 O   0  0  0  0  0  0
   -6.1159   -2.6765    2.1601 C   0  0  0  0  0  0
   -7.3348   -2.4324    3.0641 C   0  0  0  0  0  0
   -7.0878   -1.3281    4.0998 C   0  0  0  0  0  0
   -8.2723   -1.1739    5.0253 C   0  0  0  0  0  0
   -9.2948   -1.8448    4.9357 O   0  0  0  0  0  0
   -8.0994   -0.2295    5.9618 O   0  0  0  0  0  0
   -8.4806   -2.0267    2.1268 C   0  0  0  0  0  0
   -9.4751   -2.7145    1.9527 O   0  0  0  0  0  0
   -8.2789   -0.8743    1.4732 O   0  0  0  0  0  0
   -2.0937   -6.1182    0.7733 O   0  0  0  0  0  0
   -1.7568   -7.1016   -0.1418 C   0  0  0  0  0  0
   -2.5551   -7.6822   -0.8657 O   0  0  0  0  0  0
   -0.2506   -7.3941   -0.1564 C   0  0  0  0  0  0
    0.4261   -7.5327    1.2426 C   0  0  0  0  0  0
    1.0302   -8.8971    1.6219 C   0  0  0  0  0  0
   -0.0013   -9.9810    1.7468 C   0  0  0  0  0  0
   -0.5057  -10.3690    2.7916 O   0  0  0  0  0  0
   -0.3504  -10.4966    0.5583 O   0  0  0  0  0  0
    1.4870   -6.4675    1.5461 C   0  0  0  0  0  0
    2.1263   -5.9063    0.6784 O   0  0  0  0  0  0
    1.5946   -6.1100    2.8430 O   0  0  0  0  0  0
    1.3434    6.8360    6.4338 H   0  0  0  0  0  0
    1.5239    8.4012    6.8057 H   0  0  0  0  0  0
   -1.2481    7.9719    3.3869 H   0  0  0  0  0  0
    0.2050    4.9107    6.7701 H   0  0  0  0  0  0
   -1.3709   -1.4397    5.6729 H   0  0  0  0  0  0
   -8.8814   -0.0446    6.5164 H   0  0  0  0  0  0
   -9.0278   -0.5977    0.8890 H   0  0  0  0  0  0
   -1.0441  -11.1666    0.7351 H   0  0  0  0  0  0
    1.0696   -6.6522    3.4728 H   0  0  0  0  0  0
  1  2  1  0  0  0
  2  3  1  0  0  0
  3  4  1  0  0  0
  4  5  1  0  0  0
  5  6  1  0  0  0
  5  7  1  0  0  0
  7  8  1  0  0  0
  7 39  1  0  0  0
  8  9  1  0  0  0
  8 27  1  0  0  0
  9 10  1  0  0  0
 10 11  1  0  0  0
 10 12  1  0  0  0
 12 13  1  0  0  0
 13 14  1  0  0  0
 13 26  1  0  0  0
 14 15  1  0  0  0
 15 16  1  0  0  0
 16 17  1  0  0  0
 17 18  1  0  0  0
 18 19  1  0  0  0
 18 25  1  0  0  0
 19 20  1  0  0  0
 20 21  1  0  0  0
 20 24  1  0  0  0
 21 22  1  0  0  0
 21 23  1  0  0  0
 23 51  1  0  0  0
 23 52  1  0  0  0
 24 53  1  0  0  0
 25 54  1  0  0  0
 26 55  1  0  0  0
 27 28  1  0  0  0
 28 29  2  0  0  0
 28 30  1  0  0  0
 30 31  1  0  0  0
 31 32  1  0  0  0
 31 36  1  0  0  0
 32 33  1  0  0  0
 33 34  2  0  0  0
 33 35  1  0  0  0
 35 56  1  0  0  0
 36 37  2  0  0  0
 36 38  1  0  0  0
 38 57  1  0  0  0
 39 40  1  0  0  0
 40 41  2  0  0  0
 40 42  1  0  0  0
 42 43  1  0  0  0
 43 44  1  0  0  0
 43 48  1  0  0  0
 44 45  1  0  0  0
 45 46  2  0  0  0
 45 47  1  0  0  0
 47 58  1  0  0  0
 48 49  2  0  0  0
 48 50  1  0  0  0
 50 59  1  0  0  0
M  END
>  <AUTHOR>
    GENERATED BY OPEN BABEL 2.4.1

>  <CHROM.1>
-176.41862237,167.12115574,-57.88195696,-72.07535317,113.08484217,29.24932120
48.05097994,81.06231124,49.49710054,-72.19431097,-79.51490210,-174.11447744
165.87154879,168.47323074,166.21604454,143.48800478,88.21374311,93.10372860
-21.64598333,89.54710109,-174.46711056,171.09889666,-25.05560970,-7.42248552
-136.48934144,119.68745946,-176.45914113,113.58700344,-0.67615345,174.05427159
-178.28667296,27.32548337,45.00189913,115.93426563,-65.05178865,-27.19820580
-97.82966865,-178.01748381,7.83674024,-2.38285007,-2.83693172,3.07147292
-1.69872220,0.02348400,0.21966116

>  <COMPND>
    UNNAMED

>  <MASTER>
        0    0    0    0    0    0    0    0  109    0  109    0

>  <Name>
FB1.pdb

>  <RI>
0

>  <Rbt.Current_Directory>
/home/fc/tossine/F10/p3/1_clust04

>  <Rbt.Executable>
rbdock/0.1.0

>  <Rbt.Library>
librxdock.so/0.1.0

>  <Rbt.Parameter_File>
/cluster/rxdock/data/scripts/dock.prm

>  <Rbt.Receptor>
rx_3.prm

>  <SCORE>
15.2642

>  <SCORE.INTER>
3.02446

>  <SCORE.INTER.CONST>
1

>  <SCORE.INTER.POLAR>
-1.91949

>  <SCORE.INTER.REPUL>
0.433365

>  <SCORE.INTER.ROT>
32

>  <SCORE.INTER.VDW>
-30.0161

>  <SCORE.INTER.norm>
0.0604892

>  <SCORE.INTRA>
10.7153

>  <SCORE.INTRA.DIHEDRAL>
16.1067

>  <SCORE.INTRA.DIHEDRAL.0>
47.3121

>  <SCORE.INTRA.POLAR>
0.478077

>  <SCORE.INTRA.POLAR.0>
-1.47808

>  <SCORE.INTRA.REPUL>
0.00357404

>  <SCORE.INTRA.REPUL.0>
0

>  <SCORE.INTRA.VDW>
1.01867

>  <SCORE.INTRA.VDW.0>
-2.78316

>  <SCORE.INTRA.norm>
0.214307

>  <SCORE.RESTR>
1.52443

>  <SCORE.RESTR.CAVITY>
1.52443

>  <SCORE.RESTR.norm>
0.0304886

>  <SCORE.SYSTEM>
0

>  <SCORE.SYSTEM.CONST>
0

>  <SCORE.SYSTEM.DIHEDRAL>
0

>  <SCORE.SYSTEM.norm>
0

>  <SCORE.heavy>
50

>  <SCORE.norm>
0.305284

$$$$
