FB1.pdb
  RxDock  10092021593D
librxdock.so/0.1.0
 59 58  0  0  0  0  0  0  0  0999 V2000
  -10.5573   -1.5890   -0.1510 C   0  0  0  0  0  0
   -9.6501   -2.2182    0.9037 C   0  0  0  0  0  0
   -8.6863   -3.2450    0.2864 C   0  0  0  0  0  0
   -7.6323   -3.7819    1.2867 C   0  0  0  0  0  0
   -6.9715   -2.6913    2.2001 C   0  0  0  0  0  0
   -7.8691   -2.4899    3.4428 C   0  0  0  0  0  0
   -5.4829   -3.0391    2.6258 C   0  0  0  0  0  0
   -4.6613   -1.8966    3.3913 C   0  0  0  0  0  0
   -3.2489   -1.3250    2.9371 C   0  0  0  0  0  0
   -1.9445   -2.1954    3.4492 C   0  0  0  0  0  0
   -1.0595   -2.4990    2.2414 C   0  0  0  0  0  0
   -1.0654   -1.5317    4.6031 C   0  0  0  0  0  0
   -0.1729   -0.1958    4.4095 C   0  0  0  0  0  0
   -0.2770    1.0317    5.3783 C   0  0  0  0  0  0
    0.3261    2.4296    4.8971 C   0  0  0  0  0  0
   -0.0494    3.8256    5.5333 C   0  0  0  0  0  0
    0.2967    5.1315    4.7702 C   0  0  0  0  0  0
    0.9761    6.2809    5.6107 C   0  0  0  0  0  0
    1.2650    7.5889    4.8637 C   0  0  0  0  0  0
    0.3264    7.9910    3.6908 C   0  0  0  0  0  0
    0.5293    9.3414    2.9421 C   0  0  0  0  0  0
   -0.5277   10.4115    3.1765 C   0  0  0  0  0  0
    1.8833    9.8763    3.1808 N   0  0  0  0  0  0
    0.5372    6.9682    2.6842 O   0  0  0  0  0  0
    0.1281    6.5723    6.7268 O   0  0  0  0  0  0
    1.1893   -0.6428    4.5153 O   0  0  0  0  0  0
   -5.5267   -0.7295    3.4287 O   0  0  0  0  0  0
   -5.1561    0.2872    4.2498 C   0  0  0  0  0  0
   -4.0164    0.6243    4.5081 O   0  0  0  0  0  0
   -6.3961    1.0004    4.7138 C   0  0  0  0  0  0
   -7.0467    0.3226    5.9303 C   0  0  0  0  0  0
   -6.4829    0.8359    7.2615 C   0  0  0  0  0  0
   -7.0786    0.0866    8.4308 C   0  0  0  0  0  0
   -7.7227    0.6254    9.3244 O   0  0  0  0  0  0
   -6.8371   -1.2323    8.3992 O   0  0  0  0  0  0
   -8.5458    0.6391    5.8378 C   0  0  0  0  0  0
   -9.1154    1.4000    6.6053 O   0  0  0  0  0  0
   -9.1934   -0.0280    4.8726 O   0  0  0  0  0  0
   -5.4192   -4.3389    3.3373 O   0  0  0  0  0  0
   -5.1560   -5.4815    2.6002 C   0  0  0  0  0  0
   -5.9048   -6.4465    2.5202 O   0  0  0  0  0  0
   -3.8032   -5.4125    1.8795 C   0  0  0  0  0  0
   -2.8047   -6.5676    2.2010 C   0  0  0  0  0  0
   -1.8178   -6.3674    3.3656 C   0  0  0  0  0  0
   -0.4925   -7.0336    3.1325 C   0  0  0  0  0  0
   -0.1493   -8.1173    3.5847 O   0  0  0  0  0  0
    0.3107   -6.3133    2.3348 O   0  0  0  0  0  0
   -3.4592   -7.9412    2.3930 C   0  0  0  0  0  0
   -4.2399   -8.1806    3.2929 O   0  0  0  0  0  0
   -3.1952   -8.8486    1.4295 O   0  0  0  0  0  0
    2.0561   10.6474    2.5373 H   0  0  0  0  0  0
    2.5671    9.1608    2.9242 H   0  0  0  0  0  0
   -0.0235    7.2458    1.9293 H   0  0  0  0  0  0
   -0.3709    7.3852    6.5256 H   0  0  0  0  0  0
    1.3497   -0.9027    5.4379 H   0  0  0  0  0  0
   -7.5119   -1.7685    7.9404 H   0  0  0  0  0  0
  -10.1745    0.0994    4.8735 H   0  0  0  0  0  0
   -0.1315   -5.4492    2.1966 H   0  0  0  0  0  0
   -2.6015   -8.5369    0.7108 H   0  0  0  0  0  0
  1  2  1  0  0  0
  2  3  1  0  0  0
  3  4  1  0  0  0
  4  5  1  0  0  0
  5  6  1  0  0  0
  5  7  1  0  0  0
  7  8  1  0  0  0
  7 39  1  0  0  0
  8  9  1  0  0  0
  8 27  1  0  0  0
  9 10  1  0  0  0
 10 11  1  0  0  0
 10 12  1  0  0  0
 12 13  1  0  0  0
 13 14  1  0  0  0
 13 26  1  0  0  0
 14 15  1  0  0  0
 15 16  1  0  0  0
 16 17  1  0  0  0
 17 18  1  0  0  0
 18 19  1  0  0  0
 18 25  1  0  0  0
 19 20  1  0  0  0
 20 21  1  0  0  0
 20 24  1  0  0  0
 21 22  1  0  0  0
 21 23  1  0  0  0
 23 51  1  0  0  0
 23 52  1  0  0  0
 24 53  1  0  0  0
 25 54  1  0  0  0
 26 55  1  0  0  0
 27 28  1  0  0  0
 28 29  2  0  0  0
 28 30  1  0  0  0
 30 31  1  0  0  0
 31 32  1  0  0  0
 31 36  1  0  0  0
 32 33  1  0  0  0
 33 34  2  0  0  0
 33 35  1  0  0  0
 35 56  1  0  0  0
 36 37  2  0  0  0
 36 38  1  0  0  0
 38 57  1  0  0  0
 39 40  1  0  0  0
 40 41  2  0  0  0
 40 42  1  0  0  0
 42 43  1  0  0  0
 43 44  1  0  0  0
 43 48  1  0  0  0
 44 45  1  0  0  0
 45 46  2  0  0  0
 45 47  1  0  0  0
 47 58  1  0  0  0
 48 49  2  0  0  0
 48 50  1  0  0  0
 50 59  1  0  0  0
M  END
>  <AUTHOR>
    GENERATED BY OPEN BABEL 2.4.1

>  <CHROM.1>
172.97034909,-43.60346882,86.42736068,171.96402668,-124.90665049,93.11706656
-84.85398863,167.63998869,128.47573041,-67.54459606,128.57162716,-163.57757797
-69.43499058,161.50556776,-164.17153039,-133.50359595,-177.66579797,30.02784793
-101.54062685,176.99284055,-109.58362139,-177.45144099,168.48283720,33.58711137
84.19221476,88.38573463,-176.31683639,-109.57725892,-119.85617514,-90.77137701
173.71719072,-120.07704384,123.31401889,-90.84265602,-146.51870085,-63.67317562
-98.95138494,7.77822799,0.73237418,-3.61864009,-0.56996913,3.91408967,1.96216788
-0.13296952,-2.94078460

>  <COMPND>
    UNNAMED

>  <MASTER>
        0    0    0    0    0    0    0    0  109    0  109    0

>  <Name>
FB1.pdb

>  <RI>
0

>  <Rbt.Current_Directory>
/home/fc/tossine/F10/p3/1_clust04

>  <Rbt.Executable>
rbdock/0.1.0

>  <Rbt.Library>
librxdock.so/0.1.0

>  <Rbt.Parameter_File>
/cluster/rxdock/data/scripts/dock.prm

>  <Rbt.Receptor>
rx_4.prm

>  <SCORE>
60.8517

>  <SCORE.INTER>
16.1508

>  <SCORE.INTER.CONST>
1

>  <SCORE.INTER.POLAR>
-1.68994

>  <SCORE.INTER.REPUL>
0.227521

>  <SCORE.INTER.ROT>
32

>  <SCORE.INTER.VDW>
-16.641

>  <SCORE.INTER.norm>
0.323016

>  <SCORE.INTRA>
44.4265

>  <SCORE.INTRA.DIHEDRAL>
72.0428

>  <SCORE.INTRA.DIHEDRAL.0>
47.3121

>  <SCORE.INTRA.POLAR>
1.47808

>  <SCORE.INTRA.POLAR.0>
-1.47808

>  <SCORE.INTRA.REPUL>
0.0264414

>  <SCORE.INTRA.REPUL.0>
0

>  <SCORE.INTRA.VDW>
3.24744

>  <SCORE.INTRA.VDW.0>
-2.78316

>  <SCORE.INTRA.norm>
0.88853

>  <SCORE.RESTR>
0.274407

>  <SCORE.RESTR.CAVITY>
0.274407

>  <SCORE.RESTR.norm>
0.00548814

>  <SCORE.SYSTEM>
0

>  <SCORE.SYSTEM.CONST>
0

>  <SCORE.SYSTEM.DIHEDRAL>
0

>  <SCORE.SYSTEM.norm>
0

>  <SCORE.heavy>
50

>  <SCORE.norm>
1.21703

$$$$
