FB1.pdb
  RxDock  10092021063D
librxdock.so/0.1.0
 59 58  0  0  0  0  0  0  0  0999 V2000
  -10.3638   -0.0021    1.9636 C   0  0  0  0  0  0
   -9.8796    0.2120    3.3958 C   0  0  0  0  0  0
   -8.5174    0.9240    3.4358 C   0  0  0  0  0  0
   -7.8083    0.8237    4.8095 C   0  0  0  0  0  0
   -6.8687   -0.4208    4.9796 C   0  0  0  0  0  0
   -7.7248   -1.6995    4.8296 C   0  0  0  0  0  0
   -5.6463   -0.4343    3.9680 C   0  0  0  0  0  0
   -4.4493    0.5887    4.2626 C   0  0  0  0  0  0
   -4.2063    1.3399    5.6428 C   0  0  0  0  0  0
   -5.2626    2.5646    5.9680 C   0  0  0  0  0  0
   -4.9975    3.0703    7.3851 C   0  0  0  0  0  0
   -5.2495    3.7931    4.9505 C   0  0  0  0  0  0
   -3.9108    4.3883    4.2633 C   0  0  0  0  0  0
   -2.5371    4.4505    5.0150 C   0  0  0  0  0  0
   -1.8418    5.8751    5.2055 C   0  0  0  0  0  0
   -0.3438    6.0788    5.6627 C   0  0  0  0  0  0
    0.7944    5.3521    4.8986 C   0  0  0  0  0  0
    0.6147    3.8009    4.6734 C   0  0  0  0  0  0
    1.7489    3.0868    3.9276 C   0  0  0  0  0  0
    3.1516    3.0324    4.5966 C   0  0  0  0  0  0
    4.3093    2.2215    3.9427 C   0  0  0  0  0  0
    4.5114    0.8002    4.4492 C   0  0  0  0  0  0
    4.2029    2.2467    2.4714 N   0  0  0  0  0  0
    3.6114    4.4080    4.5989 O   0  0  0  0  0  0
    0.4543    3.1841    5.9554 O   0  0  0  0  0  0
   -3.6760    3.5468    3.1217 O   0  0  0  0  0  0
   -3.2183   -0.1492    4.0331 O   0  0  0  0  0  0
   -2.0575    0.5538    4.0919 C   0  0  0  0  0  0
   -1.6496    1.1907    5.0445 O   0  0  0  0  0  0
   -1.3017    0.3328    2.8107 C   0  0  0  0  0  0
   -0.1697   -0.6957    2.9630 C   0  0  0  0  0  0
   -0.0293   -1.6029    1.7339 C   0  0  0  0  0  0
   -1.2092   -2.5387    1.6094 C   0  0  0  0  0  0
   -1.3144   -3.5851    2.2400 O   0  0  0  0  0  0
   -2.1382   -2.1145    0.7401 O   0  0  0  0  0  0
    1.1157    0.1185    3.1645 C   0  0  0  0  0  0
    1.6354    0.7755    2.2753 O   0  0  0  0  0  0
    1.6525    0.0108    4.3877 O   0  0  0  0  0  0
   -5.1529   -1.8148    3.7429 O   0  0  0  0  0  0
   -5.8367   -2.6214    2.8485 C   0  0  0  0  0  0
   -6.3146   -2.2372    1.7891 O   0  0  0  0  0  0
   -5.9353   -4.0747    3.3306 C   0  0  0  0  0  0
   -5.2237   -5.1354    2.4344 C   0  0  0  0  0  0
   -3.7135   -4.9735    2.1826 C   0  0  0  0  0  0
   -3.0833   -6.1996    1.5876 C   0  0  0  0  0  0
   -2.0860   -6.7668    2.0121 O   0  0  0  0  0  0
   -3.7497   -6.6493    0.5134 O   0  0  0  0  0  0
   -5.4586   -6.5902    2.8595 C   0  0  0  0  0  0
   -5.7614   -7.4668    2.0743 O   0  0  0  0  0  0
   -5.2024   -6.8635    4.1560 O   0  0  0  0  0  0
    5.1158    2.0430    2.0670 H   0  0  0  0  0  0
    3.9911    3.2023    2.1756 H   0  0  0  0  0  0
    3.0958    4.8392    5.3127 H   0  0  0  0  0  0
   -0.4019    3.4685    6.3248 H   0  0  0  0  0  0
   -4.4442    3.6202    2.5309 H   0  0  0  0  0  0
   -2.9876   -2.5953    0.7705 H   0  0  0  0  0  0
    1.1051   -0.5029    5.0320 H   0  0  0  0  0  0
   -3.2254   -7.3928    0.1480 H   0  0  0  0  0  0
   -5.2650   -6.0961    4.7670 H   0  0  0  0  0  0
  1  2  1  0  0  0
  2  3  1  0  0  0
  3  4  1  0  0  0
  4  5  1  0  0  0
  5  6  1  0  0  0
  5  7  1  0  0  0
  7  8  1  0  0  0
  7 39  1  0  0  0
  8  9  1  0  0  0
  8 27  1  0  0  0
  9 10  1  0  0  0
 10 11  1  0  0  0
 10 12  1  0  0  0
 12 13  1  0  0  0
 13 14  1  0  0  0
 13 26  1  0  0  0
 14 15  1  0  0  0
 15 16  1  0  0  0
 16 17  1  0  0  0
 17 18  1  0  0  0
 18 19  1  0  0  0
 18 25  1  0  0  0
 19 20  1  0  0  0
 20 21  1  0  0  0
 20 24  1  0  0  0
 21 22  1  0  0  0
 21 23  1  0  0  0
 23 51  1  0  0  0
 23 52  1  0  0  0
 24 53  1  0  0  0
 25 54  1  0  0  0
 26 55  1  0  0  0
 27 28  1  0  0  0
 28 29  2  0  0  0
 28 30  1  0  0  0
 30 31  1  0  0  0
 31 32  1  0  0  0
 31 36  1  0  0  0
 32 33  1  0  0  0
 33 34  2  0  0  0
 33 35  1  0  0  0
 35 56  1  0  0  0
 36 37  2  0  0  0
 36 38  1  0  0  0
 38 57  1  0  0  0
 39 40  1  0  0  0
 40 41  2  0  0  0
 40 42  1  0  0  0
 42 43  1  0  0  0
 43 44  1  0  0  0
 43 48  1  0  0  0
 44 45  1  0  0  0
 45 46  2  0  0  0
 45 47  1  0  0  0
 47 58  1  0  0  0
 48 49  2  0  0  0
 48 50  1  0  0  0
 50 59  1  0  0  0
M  END
>  <AUTHOR>
    GENERATED BY OPEN BABEL 2.4.1

>  <CHROM.1>
-164.31041903,89.85995756,-60.92364523,74.39629115,16.13122503,80.48935393
-73.35797028,173.59348292,173.56980333,-37.75419614,-35.51216846,-121.06808504
60.85679693,-166.77044248,52.85034868,-50.35819791,-179.51206260,64.50444319
68.10147380,174.93241636,-95.16331106,75.12666034,158.24537580,58.61913451
-100.90791220,141.59479874,-69.10301632,-70.50977039,-81.50371200,-168.04728371
-5.97869724,39.10253612,-116.86527817,58.29278550,166.62773747,133.13503212
-128.58502794,174.93873222,24.73308124,-2.68573306,-0.14283195,3.64637352
2.32861275,-0.08942654,-2.82326130

>  <COMPND>
    UNNAMED

>  <MASTER>
        0    0    0    0    0    0    0    0  109    0  109    0

>  <Name>
FB1.pdb

>  <RI>
0

>  <Rbt.Current_Directory>
/home/fc/tossine/F10/p3/1_clust04

>  <Rbt.Executable>
rbdock/0.1.0

>  <Rbt.Library>
librxdock.so/0.1.0

>  <Rbt.Parameter_File>
/cluster/rxdock/data/scripts/dock.prm

>  <Rbt.Receptor>
rx_3.prm

>  <SCORE>
40.5845

>  <SCORE.INTER>
15.5011

>  <SCORE.INTER.CONST>
1

>  <SCORE.INTER.POLAR>
-1.68678

>  <SCORE.INTER.REPUL>
0.120974

>  <SCORE.INTER.ROT>
32

>  <SCORE.INTER.VDW>
-16.7687

>  <SCORE.INTER.norm>
0.310022

>  <SCORE.INTRA>
20.231

>  <SCORE.INTRA.DIHEDRAL>
31.6143

>  <SCORE.INTRA.DIHEDRAL.0>
47.3121

>  <SCORE.INTRA.POLAR>
1.47808

>  <SCORE.INTRA.POLAR.0>
-1.47808

>  <SCORE.INTRA.REPUL>
0.174693

>  <SCORE.INTRA.REPUL.0>
0

>  <SCORE.INTRA.VDW>
-1.47511

>  <SCORE.INTRA.VDW.0>
-2.78316

>  <SCORE.INTRA.norm>
0.404619

>  <SCORE.RESTR>
4.85247

>  <SCORE.RESTR.CAVITY>
4.85247

>  <SCORE.RESTR.norm>
0.0970494

>  <SCORE.SYSTEM>
0

>  <SCORE.SYSTEM.CONST>
0

>  <SCORE.SYSTEM.DIHEDRAL>
0

>  <SCORE.SYSTEM.norm>
0

>  <SCORE.heavy>
50

>  <SCORE.norm>
0.81169

$$$$
