FB1.pdb
  RxDock  10092021573D
librxdock.so/0.1.0
 59 58  0  0  0  0  0  0  0  0999 V2000
   -7.3554    0.6805    7.8442 C   0  0  0  0  0  0
   -5.8522    0.4513    7.9835 C   0  0  0  0  0  0
   -5.0427    1.4685    7.1624 C   0  0  0  0  0  0
   -5.3550    1.4263    5.6457 C   0  0  0  0  0  0
   -4.3682    2.2472    4.7440 C   0  0  0  0  0  0
   -4.5176    3.7446    5.0991 C   0  0  0  0  0  0
   -2.8568    1.7815    4.8725 C   0  0  0  0  0  0
   -2.5088    0.3000    4.3722 C   0  0  0  0  0  0
   -3.1009   -0.3875    3.0665 C   0  0  0  0  0  0
   -3.5675   -1.9587    3.2536 C   0  0  0  0  0  0
   -5.0891   -2.0301    3.1360 C   0  0  0  0  0  0
   -2.9040   -3.0127    2.2568 C   0  0  0  0  0  0
   -3.2810   -4.5858    2.2167 C   0  0  0  0  0  0
   -4.7553   -5.1001    2.3513 C   0  0  0  0  0  0
   -5.0460   -6.6461    2.0784 C   0  0  0  0  0  0
   -4.3067   -7.8326    2.8135 C   0  0  0  0  0  0
   -2.7613   -7.8033    2.9493 C   0  0  0  0  0  0
   -1.9880   -9.0995    2.4902 C   0  0  0  0  0  0
   -1.1268   -8.9656    1.2281 C   0  0  0  0  0  0
   -1.7544   -9.3626   -0.1382 C   0  0  0  0  0  0
   -2.2329  -10.8223   -0.3951 C   0  0  0  0  0  0
   -1.2553  -11.9301   -0.0283 C   0  0  0  0  0  0
   -3.5527  -11.0586    0.2202 N   0  0  0  0  0  0
   -2.9522   -8.5512   -0.2423 O   0  0  0  0  0  0
   -1.1482   -9.5190    3.5713 O   0  0  0  0  0  0
   -2.8423   -5.0382    0.9246 O   0  0  0  0  0  0
   -1.0691    0.2651    4.1758 O   0  0  0  0  0  0
   -0.5361   -0.9003    3.7252 C   0  0  0  0  0  0
   -0.2344   -1.8633    4.4041 O   0  0  0  0  0  0
   -0.4723   -0.8454    2.2238 C   0  0  0  0  0  0
    0.7345   -0.0422    1.7131 C   0  0  0  0  0  0
    0.5799    0.3852    0.2479 C   0  0  0  0  0  0
    1.8945    0.8657   -0.3214 C   0  0  0  0  0  0
    2.1664    2.0488   -0.4952 O   0  0  0  0  0  0
    2.7432   -0.1291   -0.6196 O   0  0  0  0  0  0
    0.8286    1.1967    2.6145 C   0  0  0  0  0  0
   -0.0922    1.9860    2.7615 O   0  0  0  0  0  0
    2.0253    1.3709    3.1920 O   0  0  0  0  0  0
   -1.9347    2.7914    4.2983 O   0  0  0  0  0  0
   -0.9455    3.3187    5.1117 C   0  0  0  0  0  0
    0.1446    2.7981    5.3092 O   0  0  0  0  0  0
   -1.3638    4.6489    5.7520 C   0  0  0  0  0  0
   -0.5818    5.9093    5.2678 C   0  0  0  0  0  0
   -1.2430    6.8071    4.2062 C   0  0  0  0  0  0
   -0.3342    7.8940    3.7088 C   0  0  0  0  0  0
   -0.2422    9.0189    4.1808 O   0  0  0  0  0  0
    0.4144    7.5003    2.6672 O   0  0  0  0  0  0
   -0.0904    6.8266    6.3945 C   0  0  0  0  0  0
    1.0875    7.0083    6.6316 O   0  0  0  0  0  0
   -1.0539    7.5108    7.0463 O   0  0  0  0  0  0
   -4.2779  -10.6861   -0.3912 H   0  0  0  0  0  0
   -3.6185  -10.5028    1.0759 H   0  0  0  0  0  0
   -3.4047   -8.8813   -1.0470 H   0  0  0  0  0  0
   -1.6797   -9.5146    4.3886 H   0  0  0  0  0  0
   -3.5110   -4.7742    0.2706 H   0  0  0  0  0  0
    3.5878    0.1504   -1.0220 H   0  0  0  0  0  0
    2.1479    2.2525    3.6237 H   0  0  0  0  0  0
    1.3508    7.5947    2.9422 H   0  0  0  0  0  0
   -1.9738    7.3156    6.7603 H   0  0  0  0  0  0
  1  2  1  0  0  0
  2  3  1  0  0  0
  3  4  1  0  0  0
  4  5  1  0  0  0
  5  6  1  0  0  0
  5  7  1  0  0  0
  7  8  1  0  0  0
  7 39  1  0  0  0
  8  9  1  0  0  0
  8 27  1  0  0  0
  9 10  1  0  0  0
 10 11  1  0  0  0
 10 12  1  0  0  0
 12 13  1  0  0  0
 13 14  1  0  0  0
 13 26  1  0  0  0
 14 15  1  0  0  0
 15 16  1  0  0  0
 16 17  1  0  0  0
 17 18  1  0  0  0
 18 19  1  0  0  0
 18 25  1  0  0  0
 19 20  1  0  0  0
 20 21  1  0  0  0
 20 24  1  0  0  0
 21 22  1  0  0  0
 21 23  1  0  0  0
 23 51  1  0  0  0
 23 52  1  0  0  0
 24 53  1  0  0  0
 25 54  1  0  0  0
 26 55  1  0  0  0
 27 28  1  0  0  0
 28 29  2  0  0  0
 28 30  1  0  0  0
 30 31  1  0  0  0
 31 32  1  0  0  0
 31 36  1  0  0  0
 32 33  1  0  0  0
 33 34  2  0  0  0
 33 35  1  0  0  0
 35 56  1  0  0  0
 36 37  2  0  0  0
 36 38  1  0  0  0
 38 57  1  0  0  0
 39 40  1  0  0  0
 40 41  2  0  0  0
 40 42  1  0  0  0
 42 43  1  0  0  0
 43 44  1  0  0  0
 43 48  1  0  0  0
 44 45  1  0  0  0
 45 46  2  0  0  0
 45 47  1  0  0  0
 47 58  1  0  0  0
 48 49  2  0  0  0
 48 50  1  0  0  0
 50 59  1  0  0  0
M  END
>  <AUTHOR>
    GENERATED BY OPEN BABEL 2.4.1

>  <CHROM.1>
-59.58600028,-168.98059642,-64.97061590,64.76201981,40.42392728,122.80285666
-136.80134380,-178.94086303,111.85437673,-176.55817053,40.82831060,170.86656344
-79.55738887,54.67842194,-46.86258535,-129.09992142,111.25180295,-94.18205652
47.45219324,-61.69966224,-48.48508830,-173.15595247,80.75313408,-83.66649872
80.03315034,-162.27197575,-166.10527737,-56.53401966,-103.55983256,177.71717521
168.42400678,84.51611020,-112.44785366,99.47587614,-173.44990980,114.79356614
-90.77052798,-120.18759508,2.91641831,-1.75170028,-0.70625464,3.25776973
1.42171775,0.63397634,0.33888206

>  <COMPND>
    UNNAMED

>  <MASTER>
        0    0    0    0    0    0    0    0  109    0  109    0

>  <Name>
FB1.pdb

>  <RI>
0

>  <Rbt.Current_Directory>
/home/fc/tossine/F10/p3/1_clust04

>  <Rbt.Executable>
rbdock/0.1.0

>  <Rbt.Library>
librxdock.so/0.1.0

>  <Rbt.Parameter_File>
/cluster/rxdock/data/scripts/dock.prm

>  <Rbt.Receptor>
rx_4.prm

>  <SCORE>
60.1781

>  <SCORE.INTER>
11.729

>  <SCORE.INTER.CONST>
1

>  <SCORE.INTER.POLAR>
-3.81324

>  <SCORE.INTER.REPUL>
0.289506

>  <SCORE.INTER.ROT>
32

>  <SCORE.INTER.VDW>
-14.1535

>  <SCORE.INTER.norm>
0.23458

>  <SCORE.INTRA>
46.4859

>  <SCORE.INTRA.DIHEDRAL>
76.6679

>  <SCORE.INTRA.DIHEDRAL.0>
47.3121

>  <SCORE.INTRA.POLAR>
1.47808

>  <SCORE.INTRA.POLAR.0>
-1.47808

>  <SCORE.INTRA.REPUL>
0.130248

>  <SCORE.INTRA.REPUL.0>
0

>  <SCORE.INTRA.VDW>
2.47525

>  <SCORE.INTRA.VDW.0>
-2.78316

>  <SCORE.INTRA.norm>
0.929718

>  <SCORE.RESTR>
1.96325

>  <SCORE.RESTR.CAVITY>
1.96325

>  <SCORE.RESTR.norm>
0.039265

>  <SCORE.SYSTEM>
0

>  <SCORE.SYSTEM.CONST>
0

>  <SCORE.SYSTEM.DIHEDRAL>
0

>  <SCORE.SYSTEM.norm>
0

>  <SCORE.heavy>
50

>  <SCORE.norm>
1.20356

$$$$
