FB1.pdb
  RxDock  09132018213D
librxdock.so/0.1.0
 59 58  0  0  0  0  0  0  0  0999 V2000
    3.4896    0.9737    3.4654 C   0  0  0  0  0  0
    3.3588    1.9809    4.6054 C   0  0  0  0  0  0
    2.6925    3.2857    4.1387 C   0  0  0  0  0  0
    1.1453    3.2142    4.1132 C   0  0  0  0  0  0
    0.4326    3.8611    5.3518 C   0  0  0  0  0  0
    0.1940    5.3581    5.0476 C   0  0  0  0  0  0
   -0.9234    3.1397    5.7502 C   0  0  0  0  0  0
   -1.9191    2.7554    4.5556 C   0  0  0  0  0  0
   -2.6062    1.3351    4.3583 C   0  0  0  0  0  0
   -1.5761    0.1086    3.9633 C   0  0  0  0  0  0
   -2.3342   -1.2138    4.0666 C   0  0  0  0  0  0
   -0.8742    0.2126    2.5345 C   0  0  0  0  0  0
    0.5875   -0.3932    2.1952 C   0  0  0  0  0  0
    0.9096   -1.9229    2.3070 C   0  0  0  0  0  0
   -0.0631   -2.9570    1.5765 C   0  0  0  0  0  0
   -1.3144   -3.6356    2.2610 C   0  0  0  0  0  0
   -2.6784   -3.6459    1.5215 C   0  0  0  0  0  0
   -3.6980   -4.7758    1.9376 C   0  0  0  0  0  0
   -3.0974   -6.0236    2.5969 C   0  0  0  0  0  0
   -3.2061   -6.1661    4.1416 C   0  0  0  0  0  0
   -3.5927   -7.5305    4.7853 C   0  0  0  0  0  0
   -4.9773   -8.0685    4.4525 C   0  0  0  0  0  0
   -2.5555   -8.5469    4.5252 N   0  0  0  0  0  0
   -1.8701   -5.8849    4.6316 O   0  0  0  0  0  0
   -4.6518   -4.2006    2.8371 O   0  0  0  0  0  0
    0.8133   -0.0622    0.8146 O   0  0  0  0  0  0
   -3.0329    3.6853    4.6399 O   0  0  0  0  0  0
   -3.8820    3.7284    3.5804 C   0  0  0  0  0  0
   -4.1837    2.7945    2.8618 O   0  0  0  0  0  0
   -4.4732    5.1088    3.5000 C   0  0  0  0  0  0
   -4.8003    5.5278    2.0578 C   0  0  0  0  0  0
   -6.3047    5.7210    1.8279 C   0  0  0  0  0  0
   -7.0219    4.3924    1.7667 C   0  0  0  0  0  0
   -6.4449    3.3129    1.6937 O   0  0  0  0  0  0
   -8.3580    4.5043    1.8015 O   0  0  0  0  0  0
   -4.0590    6.8514    1.8246 C   0  0  0  0  0  0
   -2.8927    6.9084    1.4655 O   0  0  0  0  0  0
   -4.7831    7.9460    2.0957 O   0  0  0  0  0  0
   -0.6733    1.9911    6.6546 O   0  0  0  0  0  0
   -0.7223    2.2059    8.0219 C   0  0  0  0  0  0
   -1.5273    1.6818    8.7807 O   0  0  0  0  0  0
    0.3571    3.1870    8.4979 C   0  0  0  0  0  0
    0.1175    3.8304    9.8990 C   0  0  0  0  0  0
   -0.0846    2.8904   11.1016 C   0  0  0  0  0  0
    0.5288    1.5354   10.8964 C   0  0  0  0  0  0
   -0.0857    0.4834   10.7849 O   0  0  0  0  0  0
    1.8678    1.5837   10.8244 O   0  0  0  0  0  0
    1.1650    4.8726   10.3097 C   0  0  0  0  0  0
    1.8227    5.5008    9.5038 O   0  0  0  0  0  0
    1.2386    5.1300   11.6325 O   0  0  0  0  0  0
   -1.8113   -8.1297    3.9678 H   0  0  0  0  0  0
   -2.9544   -9.2755    3.9289 H   0  0  0  0  0  0
   -1.9254   -6.0355    5.5989 H   0  0  0  0  0  0
   -4.1639   -3.7700    3.5632 H   0  0  0  0  0  0
    0.1213   -0.4926    0.2851 H   0  0  0  0  0  0
   -8.8442    3.8660    1.2451 H   0  0  0  0  0  0
   -5.5953    7.7773    2.6347 H   0  0  0  0  0  0
    2.1260    2.5116   11.0079 H   0  0  0  0  0  0
    0.3942    5.0338   12.1263 H   0  0  0  0  0  0
  1  2  1  0  0  0
  2  3  1  0  0  0
  3  4  1  0  0  0
  4  5  1  0  0  0
  5  6  1  0  0  0
  5  7  1  0  0  0
  7  8  1  0  0  0
  7 39  1  0  0  0
  8  9  1  0  0  0
  8 27  1  0  0  0
  9 10  1  0  0  0
 10 11  1  0  0  0
 10 12  1  0  0  0
 12 13  1  0  0  0
 13 14  1  0  0  0
 13 26  1  0  0  0
 14 15  1  0  0  0
 15 16  1  0  0  0
 16 17  1  0  0  0
 17 18  1  0  0  0
 18 19  1  0  0  0
 18 25  1  0  0  0
 19 20  1  0  0  0
 20 21  1  0  0  0
 20 24  1  0  0  0
 21 22  1  0  0  0
 21 23  1  0  0  0
 23 51  1  0  0  0
 23 52  1  0  0  0
 24 53  1  0  0  0
 25 54  1  0  0  0
 26 55  1  0  0  0
 27 28  1  0  0  0
 28 29  2  0  0  0
 28 30  1  0  0  0
 30 31  1  0  0  0
 31 32  1  0  0  0
 31 36  1  0  0  0
 32 33  1  0  0  0
 33 34  2  0  0  0
 33 35  1  0  0  0
 35 56  1  0  0  0
 36 37  2  0  0  0
 36 38  1  0  0  0
 38 57  1  0  0  0
 39 40  1  0  0  0
 40 41  2  0  0  0
 40 42  1  0  0  0
 42 43  1  0  0  0
 43 44  1  0  0  0
 43 48  1  0  0  0
 44 45  1  0  0  0
 45 46  2  0  0  0
 45 47  1  0  0  0
 47 58  1  0  0  0
 48 49  2  0  0  0
 48 50  1  0  0  0
 50 59  1  0  0  0
M  END
>  <AUTHOR>
    GENERATED BY OPEN BABEL 2.4.1

>  <CHROM.1>
82.93689185,99.61969179,88.68769463,-44.18128539,131.53702082,92.50554432
-68.19229356,167.62757247,169.55181482,150.27296513,61.10248317,51.15170781
-61.20935746,-91.61834510,131.92703345,156.46358324,-22.33432201,101.89494061
-53.35283092,136.74753616,-63.23173691,-176.22052094,-0.56047697,32.78623482
149.15100342,115.10742642,-73.88417992,85.39239626,-10.89822918,143.19892138
15.85319076,116.96418793,161.65802044,56.03238347,24.21972979,25.09987538
-112.97168727,4.99912817,-30.73298805,-1.70405542,1.11383250,4.77868817,-1.30862940
0.89107193,-3.02453638

>  <COMPND>
    UNNAMED

>  <MASTER>
        0    0    0    0    0    0    0    0  109    0  109    0

>  <Name>
FB1.pdb

>  <RI>
0

>  <Rbt.Current_Directory>
/home/fc/tossine/F10/p3/1_clust04

>  <Rbt.Executable>
rbdock/0.1.0

>  <Rbt.Library>
librxdock.so/0.1.0

>  <Rbt.Parameter_File>
/cluster/rxdock/data/scripts/dock.prm

>  <Rbt.Receptor>
rx_0.prm

>  <SCORE>
56.4099

>  <SCORE.INTER>
8.85349

>  <SCORE.INTER.CONST>
1

>  <SCORE.INTER.POLAR>
-2.14986

>  <SCORE.INTER.REPUL>
0.751011

>  <SCORE.INTER.ROT>
32

>  <SCORE.INTER.VDW>
-24.992

>  <SCORE.INTER.norm>
0.17707

>  <SCORE.INTRA>
45.2665

>  <SCORE.INTRA.DIHEDRAL>
66.2279

>  <SCORE.INTRA.DIHEDRAL.0>
47.3121

>  <SCORE.INTRA.POLAR>
1.47757

>  <SCORE.INTRA.POLAR.0>
-1.47808

>  <SCORE.INTRA.REPUL>
0

>  <SCORE.INTRA.REPUL.0>
0

>  <SCORE.INTRA.VDW>
7.12886

>  <SCORE.INTRA.VDW.0>
-2.78316

>  <SCORE.INTRA.norm>
0.905331

>  <SCORE.RESTR>
2.28987

>  <SCORE.RESTR.CAVITY>
2.28987

>  <SCORE.RESTR.norm>
0.0457975

>  <SCORE.SYSTEM>
0

>  <SCORE.SYSTEM.CONST>
0

>  <SCORE.SYSTEM.DIHEDRAL>
0

>  <SCORE.SYSTEM.norm>
0

>  <SCORE.heavy>
50

>  <SCORE.norm>
1.1282

$$$$
