FB1.pdb
  RxDock  10092020133D
librxdock.so/0.1.0
 59 58  0  0  0  0  0  0  0  0999 V2000
    0.9713    8.1443    6.3126 C   0  0  0  0  0  0
    0.5812    7.5686    7.6719 C   0  0  0  0  0  0
    1.3870    6.3025    8.0066 C   0  0  0  0  0  0
    0.9370    5.6129    9.3186 C   0  0  0  0  0  0
   -0.2136    4.5600    9.1516 C   0  0  0  0  0  0
   -1.3279    5.1917    8.2857 C   0  0  0  0  0  0
    0.2736    3.1824    8.5330 C   0  0  0  0  0  0
    0.8863    3.2276    7.0535 C   0  0  0  0  0  0
    2.4377    3.2204    6.7050 C   0  0  0  0  0  0
    2.8253    2.5393    5.2534 C   0  0  0  0  0  0
    2.4819    3.5325    4.1445 C   0  0  0  0  0  0
    4.3351    2.0519    5.0863 C   0  0  0  0  0  0
    4.9191    1.3482    3.7512 C   0  0  0  0  0  0
    5.4115    2.1734    2.5133 C   0  0  0  0  0  0
    6.1828    1.4023    1.3472 C   0  0  0  0  0  0
    7.5438    1.8878    0.7097 C   0  0  0  0  0  0
    8.0070    1.2947   -0.6472 C   0  0  0  0  0  0
    8.7024   -0.1207   -0.5979 C   0  0  0  0  0  0
    7.7829   -1.3208   -0.3394 C   0  0  0  0  0  0
    8.4165   -2.6303    0.2099 C   0  0  0  0  0  0
    8.9365   -2.7034    1.6761 C   0  0  0  0  0  0
    8.3098   -1.7319    2.6664 C   0  0  0  0  0  0
    8.8787   -4.0866    2.1859 N   0  0  0  0  0  0
    7.3508   -3.6118    0.1401 O   0  0  0  0  0  0
    9.3772   -0.3249   -1.8439 O   0  0  0  0  0  0
    6.0722    0.6135    4.1951 O   0  0  0  0  0  0
    0.3560    2.0665    6.3585 O   0  0  0  0  0  0
   -0.9211    2.1501    5.9032 C   0  0  0  0  0  0
   -1.7121    3.0433    6.1397 O   0  0  0  0  0  0
   -1.1693    0.9991    4.9678 C   0  0  0  0  0  0
   -2.6658    0.7027    4.7806 C   0  0  0  0  0  0
   -3.3975    1.8203    4.0263 C   0  0  0  0  0  0
   -4.6996    2.1749    4.7061 C   0  0  0  0  0  0
   -5.7897    2.1367    4.1458 O   0  0  0  0  0  0
   -4.5514    2.5362    5.9892 O   0  0  0  0  0  0
   -2.7400   -0.6059    3.9818 C   0  0  0  0  0  0
   -1.7510   -1.1911    3.5672 O   0  0  0  0  0  0
   -3.9859   -1.0315    3.7319 O   0  0  0  0  0  0
    1.1563    2.4541    9.4765 O   0  0  0  0  0  0
    0.6368    2.0686   10.7011 C   0  0  0  0  0  0
   -0.3747    2.5370   11.2069 O   0  0  0  0  0  0
    1.4748    0.9721   11.3718 C   0  0  0  0  0  0
    2.8334    1.4363   11.9827 C   0  0  0  0  0  0
    3.3173    0.7518   13.2741 C   0  0  0  0  0  0
    3.3680   -0.7445   13.1613 C   0  0  0  0  0  0
    4.3842   -1.4189   13.0659 O   0  0  0  0  0  0
    2.1485   -1.3033   13.1944 O   0  0  0  0  0  0
    4.0100    1.4306   10.9989 C   0  0  0  0  0  0
    5.0189    2.0855   11.1724 O   0  0  0  0  0  0
    3.9014    0.5633    9.9707 O   0  0  0  0  0  0
    9.8214   -4.4729    2.2115 H   0  0  0  0  0  0
    8.3758   -4.6638    1.5080 H   0  0  0  0  0  0
    7.1360   -3.6752   -0.8144 H   0  0  0  0  0  0
   10.0237    0.3954   -1.9614 H   0  0  0  0  0  0
    6.3931    0.0785    3.4499 H   0  0  0  0  0  0
   -3.6279    2.6424    6.2882 H   0  0  0  0  0  0
   -4.0365   -1.8470    3.1741 H   0  0  0  0  0  0
    2.2788   -2.2694   13.0896 H   0  0  0  0  0  0
    4.7032    0.4759    9.4088 H   0  0  0  0  0  0
  1  2  1  0  0  0
  2  3  1  0  0  0
  3  4  1  0  0  0
  4  5  1  0  0  0
  5  6  1  0  0  0
  5  7  1  0  0  0
  7  8  1  0  0  0
  7 39  1  0  0  0
  8  9  1  0  0  0
  8 27  1  0  0  0
  9 10  1  0  0  0
 10 11  1  0  0  0
 10 12  1  0  0  0
 12 13  1  0  0  0
 13 14  1  0  0  0
 13 26  1  0  0  0
 14 15  1  0  0  0
 15 16  1  0  0  0
 16 17  1  0  0  0
 17 18  1  0  0  0
 18 19  1  0  0  0
 18 25  1  0  0  0
 19 20  1  0  0  0
 20 21  1  0  0  0
 20 24  1  0  0  0
 21 22  1  0  0  0
 21 23  1  0  0  0
 23 51  1  0  0  0
 23 52  1  0  0  0
 24 53  1  0  0  0
 25 54  1  0  0  0
 26 55  1  0  0  0
 27 28  1  0  0  0
 28 29  2  0  0  0
 28 30  1  0  0  0
 30 31  1  0  0  0
 31 32  1  0  0  0
 31 36  1  0  0  0
 32 33  1  0  0  0
 33 34  2  0  0  0
 33 35  1  0  0  0
 35 56  1  0  0  0
 36 37  2  0  0  0
 36 38  1  0  0  0
 38 57  1  0  0  0
 39 40  1  0  0  0
 40 41  2  0  0  0
 40 42  1  0  0  0
 42 43  1  0  0  0
 43 44  1  0  0  0
 43 48  1  0  0  0
 44 45  1  0  0  0
 45 46  2  0  0  0
 45 47  1  0  0  0
 47 58  1  0  0  0
 48 49  2  0  0  0
 48 50  1  0  0  0
 50 59  1  0  0  0
M  END
>  <AUTHOR>
    GENERATED BY OPEN BABEL 2.4.1

>  <CHROM.1>
-174.88080794,88.41293065,-47.70029336,-62.14293741,100.12943353,61.60477678
150.85551094,78.17356083,76.68387328,179.46538462,83.30809873,170.33642576
172.74463138,-131.74676098,-163.64532784,-80.46459633,73.68088734,-158.82502019
58.62111707,71.09068133,24.55318974,61.79560280,105.34113869,-8.26112581
159.94788596,67.92717021,-134.20823415,-2.94967076,-123.28595235,7.87786752
176.73886167,-18.11052684,74.08463378,145.07445820,53.79224639,159.08455039
106.53588627,178.41817020,-172.36409343,2.42084909,1.41115603,5.96210410
2.37567505,-0.32187917,1.47082957

>  <COMPND>
    UNNAMED

>  <MASTER>
        0    0    0    0    0    0    0    0  109    0  109    0

>  <Name>
FB1.pdb

>  <RI>
0

>  <Rbt.Current_Directory>
/home/fc/tossine/F10/p3/1_clust04

>  <Rbt.Executable>
rbdock/0.1.0

>  <Rbt.Library>
librxdock.so/0.1.0

>  <Rbt.Parameter_File>
/cluster/rxdock/data/scripts/dock.prm

>  <Rbt.Receptor>
rx_2.prm

>  <SCORE>
22.069

>  <SCORE.INTER>
11.2241

>  <SCORE.INTER.CONST>
1

>  <SCORE.INTER.POLAR>
-1.40749

>  <SCORE.INTER.REPUL>
0.121935

>  <SCORE.INTER.ROT>
32

>  <SCORE.INTER.VDW>
-22.0001

>  <SCORE.INTER.norm>
0.224482

>  <SCORE.INTRA>
6.66464

>  <SCORE.INTRA.DIHEDRAL>
7.56269

>  <SCORE.INTRA.DIHEDRAL.0>
47.3121

>  <SCORE.INTRA.POLAR>
0.440973

>  <SCORE.INTRA.POLAR.0>
-1.47808

>  <SCORE.INTRA.REPUL>
0

>  <SCORE.INTRA.REPUL.0>
0

>  <SCORE.INTRA.VDW>
1.38398

>  <SCORE.INTRA.VDW.0>
-2.78316

>  <SCORE.INTRA.norm>
0.133293

>  <SCORE.RESTR>
4.18025

>  <SCORE.RESTR.CAVITY>
4.18025

>  <SCORE.RESTR.norm>
0.083605

>  <SCORE.SYSTEM>
0

>  <SCORE.SYSTEM.CONST>
0

>  <SCORE.SYSTEM.DIHEDRAL>
0

>  <SCORE.SYSTEM.norm>
0

>  <SCORE.heavy>
50

>  <SCORE.norm>
0.441379

$$$$
