FB1.pdb
  RxDock  10092019103D
librxdock.so/0.1.0
 59 58  0  0  0  0  0  0  0  0999 V2000
   -7.5886   -0.1378    5.6420 C   0  0  0  0  0  0
   -7.8223    0.0754    7.1358 C   0  0  0  0  0  0
   -6.7953    1.0474    7.7398 C   0  0  0  0  0  0
   -5.3271    0.5927    7.5470 C   0  0  0  0  0  0
   -4.2562    1.7271    7.7114 C   0  0  0  0  0  0
   -3.1428    1.2110    8.6519 C   0  0  0  0  0  0
   -3.6485    2.2286    6.3341 C   0  0  0  0  0  0
   -2.5784    1.2725    5.6221 C   0  0  0  0  0  0
   -2.8157    0.4887    4.2592 C   0  0  0  0  0  0
   -2.4533   -1.1200    4.3052 C   0  0  0  0  0  0
   -2.5605   -1.6820    2.8886 C   0  0  0  0  0  0
   -1.0352   -1.5037    4.9270 C   0  0  0  0  0  0
   -0.4939   -3.0205    5.0849 C   0  0  0  0  0  0
   -0.9523   -4.1793    4.1346 C   0  0  0  0  0  0
   -0.9175   -5.6749    4.6925 C   0  0  0  0  0  0
   -0.8018   -6.9604    3.7823 C   0  0  0  0  0  0
   -1.2559   -6.8914    2.3003 C   0  0  0  0  0  0
   -0.8483   -8.1064    1.3801 C   0  0  0  0  0  0
   -1.8790   -9.2345    1.2482 C   0  0  0  0  0  0
   -3.3873   -8.8716    1.3564 C   0  0  0  0  0  0
   -3.9912   -7.7309    0.4849 C   0  0  0  0  0  0
   -3.7915   -7.8496   -1.0196 C   0  0  0  0  0  0
   -5.4134   -7.5159    0.8128 N   0  0  0  0  0  0
   -4.0852  -10.0726    0.9389 O   0  0  0  0  0  0
   -0.5641   -7.5950    0.0734 O   0  0  0  0  0  0
    0.9288   -2.9260    4.9022 O   0  0  0  0  0  0
   -1.4070    2.0938    5.3655 O   0  0  0  0  0  0
   -0.2118    1.6166    5.8002 C   0  0  0  0  0  0
   -0.0430    0.7871    6.6736 O   0  0  0  0  0  0
    0.8761    2.2109    4.9489 C   0  0  0  0  0  0
    1.6698    1.1452    4.1764 C   0  0  0  0  0  0
    1.9539    1.5587    2.7266 C   0  0  0  0  0  0
    0.9830    0.9027    1.7725 C   0  0  0  0  0  0
    0.7039    1.3586    0.6689 O   0  0  0  0  0  0
    0.4524   -0.2338    2.2475 O   0  0  0  0  0  0
    2.9894    0.9662    4.9397 C   0  0  0  0  0  0
    4.0833    0.9960    4.3968 O   0  0  0  0  0  0
    2.8421    0.7240    6.2496 O   0  0  0  0  0  0
   -4.7189    2.6548    5.4001 O   0  0  0  0  0  0
   -4.4392    3.6634    4.4931 C   0  0  0  0  0  0
   -3.4807    4.4211    4.5680 O   0  0  0  0  0  0
   -5.4735    3.7348    3.3620 C   0  0  0  0  0  0
   -5.0602    4.5820    2.1186 C   0  0  0  0  0  0
   -6.1015    4.7847    1.0029 C   0  0  0  0  0  0
   -7.4225    4.1400    1.3093 C   0  0  0  0  0  0
   -7.6907    2.9560    1.1587 O   0  0  0  0  0  0
   -8.3166    5.0109    1.8017 O   0  0  0  0  0  0
   -4.4790    5.9617    2.4518 C   0  0  0  0  0  0
   -3.6562    6.5181    1.7518 O   0  0  0  0  0  0
   -5.0208    6.5748    3.5250 O   0  0  0  0  0  0
   -5.5818   -6.5178    0.9308 H   0  0  0  0  0  0
   -5.6026   -7.9253    1.7304 H   0  0  0  0  0  0
   -3.8057  -10.2098    0.0092 H   0  0  0  0  0  0
   -0.1935   -8.3199   -0.4630 H   0  0  0  0  0  0
    1.3113   -2.5465    5.7110 H   0  0  0  0  0  0
   -0.3077   -0.5816    1.7427 H   0  0  0  0  0  0
    1.9036    0.6177    6.5439 H   0  0  0  0  0  0
   -7.8800    5.8888    1.8082 H   0  0  0  0  0  0
   -5.3857    5.9738    4.2119 H   0  0  0  0  0  0
  1  2  1  0  0  0
  2  3  1  0  0  0
  3  4  1  0  0  0
  4  5  1  0  0  0
  5  6  1  0  0  0
  5  7  1  0  0  0
  7  8  1  0  0  0
  7 39  1  0  0  0
  8  9  1  0  0  0
  8 27  1  0  0  0
  9 10  1  0  0  0
 10 11  1  0  0  0
 10 12  1  0  0  0
 12 13  1  0  0  0
 13 14  1  0  0  0
 13 26  1  0  0  0
 14 15  1  0  0  0
 15 16  1  0  0  0
 16 17  1  0  0  0
 17 18  1  0  0  0
 18 19  1  0  0  0
 18 25  1  0  0  0
 19 20  1  0  0  0
 20 21  1  0  0  0
 20 24  1  0  0  0
 21 22  1  0  0  0
 21 23  1  0  0  0
 23 51  1  0  0  0
 23 52  1  0  0  0
 24 53  1  0  0  0
 25 54  1  0  0  0
 26 55  1  0  0  0
 27 28  1  0  0  0
 28 29  2  0  0  0
 28 30  1  0  0  0
 30 31  1  0  0  0
 31 32  1  0  0  0
 31 36  1  0  0  0
 32 33  1  0  0  0
 33 34  2  0  0  0
 33 35  1  0  0  0
 35 56  1  0  0  0
 36 37  2  0  0  0
 36 38  1  0  0  0
 38 57  1  0  0  0
 39 40  1  0  0  0
 40 41  2  0  0  0
 40 42  1  0  0  0
 42 43  1  0  0  0
 43 44  1  0  0  0
 43 48  1  0  0  0
 44 45  1  0  0  0
 45 46  2  0  0  0
 45 47  1  0  0  0
 47 58  1  0  0  0
 48 49  2  0  0  0
 48 50  1  0  0  0
 50 59  1  0  0  0
M  END
>  <AUTHOR>
    GENERATED BY OPEN BABEL 2.4.1

>  <CHROM.1>
-57.68149915,160.97779818,131.67697211,-75.62423376,111.76296760,149.15606288
-129.62576929,128.13852252,-172.77307123,179.10907998,27.63445600,-153.50158488
75.33214656,-155.64359511,-23.61444613,168.07837616,93.43002346,30.38920826
172.22652595,51.60435503,55.19162030,-62.04418657,132.80868342,-21.39643886
-118.32631008,137.44851175,-99.90500157,-130.09431908,155.85023131,167.92730341
4.77533714,-15.66547390,-165.24301385,-175.10540473,1.56415697,149.98481697
-80.93522171,2.10834206,27.84126511,-2.56710544,-0.48429372,3.68894337,1.78620080
-0.23518978,0.25274754

>  <COMPND>
    UNNAMED

>  <MASTER>
        0    0    0    0    0    0    0    0  109    0  109    0

>  <Name>
FB1.pdb

>  <RI>
0

>  <Rbt.Current_Directory>
/home/fc/tossine/F10/p3/1_clust04

>  <Rbt.Executable>
rbdock/0.1.0

>  <Rbt.Library>
librxdock.so/0.1.0

>  <Rbt.Parameter_File>
/cluster/rxdock/data/scripts/dock.prm

>  <Rbt.Receptor>
rx_1.prm

>  <SCORE>
44.6566

>  <SCORE.INTER>
10.6046

>  <SCORE.INTER.CONST>
1

>  <SCORE.INTER.POLAR>
-1.61841

>  <SCORE.INTER.REPUL>
0.239851

>  <SCORE.INTER.ROT>
32

>  <SCORE.INTER.VDW>
-22.4921

>  <SCORE.INTER.norm>
0.212092

>  <SCORE.INTRA>
27.0541

>  <SCORE.INTRA.DIHEDRAL>
40.2993

>  <SCORE.INTRA.DIHEDRAL.0>
47.3121

>  <SCORE.INTRA.POLAR>
1.47808

>  <SCORE.INTRA.POLAR.0>
-1.47808

>  <SCORE.INTRA.REPUL>
0

>  <SCORE.INTRA.REPUL.0>
0

>  <SCORE.INTRA.VDW>
1.87896

>  <SCORE.INTRA.VDW.0>
-2.78316

>  <SCORE.INTRA.norm>
0.541081

>  <SCORE.RESTR>
6.99798

>  <SCORE.RESTR.CAVITY>
6.99798

>  <SCORE.RESTR.norm>
0.13996

>  <SCORE.SYSTEM>
0

>  <SCORE.SYSTEM.CONST>
0

>  <SCORE.SYSTEM.DIHEDRAL>
0

>  <SCORE.SYSTEM.norm>
0

>  <SCORE.heavy>
50

>  <SCORE.norm>
0.893133

$$$$
