FB1.pdb
  RxDock  09132019573D
librxdock.so/0.1.0
 59 58  0  0  0  0  0  0  0  0999 V2000
   -0.2427    5.9977    5.2460 C   0  0  0  0  0  0
    0.9051    5.7553    4.2687 C   0  0  0  0  0  0
    1.7734    4.5601    4.6953 C   0  0  0  0  0  0
    1.0629    3.1928    4.5362 C   0  0  0  0  0  0
    1.4314    2.1252    5.6248 C   0  0  0  0  0  0
    0.4841    2.3156    6.8318 C   0  0  0  0  0  0
    1.3773    0.6318    5.0910 C   0  0  0  0  0  0
   -0.0676    0.0424    4.7292 C   0  0  0  0  0  0
   -1.1947    0.8165    3.9177 C   0  0  0  0  0  0
   -2.3544    1.5362    4.8443 C   0  0  0  0  0  0
   -2.0405    3.0282    4.9420 C   0  0  0  0  0  0
   -3.8623    1.3372    4.3634 C   0  0  0  0  0  0
   -4.7169   -0.0177    4.5930 C   0  0  0  0  0  0
   -6.2686   -0.0782    4.3814 C   0  0  0  0  0  0
   -7.2017    0.7505    5.3773 C   0  0  0  0  0  0
   -8.7002    0.3772    5.7085 C   0  0  0  0  0  0
   -9.6962    0.1114    4.5489 C   0  0  0  0  0  0
  -10.6432   -1.1408    4.7053 C   0  0  0  0  0  0
   -9.9608   -2.4691    5.0553 C   0  0  0  0  0  0
  -10.1319   -3.6660    4.0773 C   0  0  0  0  0  0
  -11.5349   -4.2980    3.8378 C   0  0  0  0  0  0
  -11.6080   -5.4138    2.8048 C   0  0  0  0  0  0
  -12.1464   -4.7189    5.1127 N   0  0  0  0  0  0
   -9.7290   -3.1453    2.7849 O   0  0  0  0  0  0
  -11.6059   -0.8423    5.7220 O   0  0  0  0  0  0
   -4.1731   -0.9611    3.6545 O   0  0  0  0  0  0
    0.1682   -1.1649    3.9550 O   0  0  0  0  0  0
   -0.8285   -2.0876    3.9323 C   0  0  0  0  0  0
   -1.9416   -1.9561    4.4048 O   0  0  0  0  0  0
   -0.3623   -3.2721    3.1317 C   0  0  0  0  0  0
   -1.4408   -4.3599    3.0043 C   0  0  0  0  0  0
   -2.1483   -4.3307    1.6434 C   0  0  0  0  0  0
   -3.1214   -3.1777    1.5595 C   0  0  0  0  0  0
   -2.9666   -2.2120    0.8198 O   0  0  0  0  0  0
   -4.1787   -3.3104    2.3740 O   0  0  0  0  0  0
   -0.7135   -5.6988    3.1896 C   0  0  0  0  0  0
    0.5006   -5.7899    3.2906 O   0  0  0  0  0  0
   -1.5177   -6.7707    3.1822 O   0  0  0  0  0  0
    2.3530    0.4196    3.9942 O   0  0  0  0  0  0
    2.1490    1.0794    2.7938 C   0  0  0  0  0  0
    1.0518    1.3818    2.3430 O   0  0  0  0  0  0
    3.4649    1.3997    2.0726 C   0  0  0  0  0  0
    4.7069    1.6133    2.9926 C   0  0  0  0  0  0
    5.4620    0.3669    3.4894 C   0  0  0  0  0  0
    5.9224    0.4888    4.9133 C   0  0  0  0  0  0
    7.0852    0.5824    5.2817 O   0  0  0  0  0  0
    4.9010    0.5054    5.7833 O   0  0  0  0  0  0
    5.7542    2.5849    2.4346 C   0  0  0  0  0  0
    5.7009    3.0376    1.3081 O   0  0  0  0  0  0
    6.6915    2.9948    3.3149 O   0  0  0  0  0  0
  -11.5321   -5.3896    5.5724 H   0  0  0  0  0  0
  -13.0011   -5.2415    4.9083 H   0  0  0  0  0  0
   -9.4748   -3.9385    2.2677 H   0  0  0  0  0  0
  -12.0854   -0.0351    5.4593 H   0  0  0  0  0  0
   -3.2699   -1.1809    3.9381 H   0  0  0  0  0  0
   -4.6804   -2.4899    2.5424 H   0  0  0  0  0  0
   -2.4840   -6.5584    3.1904 H   0  0  0  0  0  0
    4.0850    0.3511    5.2620 H   0  0  0  0  0  0
    6.5458    2.7122    4.2450 H   0  0  0  0  0  0
  1  2  1  0  0  0
  2  3  1  0  0  0
  3  4  1  0  0  0
  4  5  1  0  0  0
  5  6  1  0  0  0
  5  7  1  0  0  0
  7  8  1  0  0  0
  7 39  1  0  0  0
  8  9  1  0  0  0
  8 27  1  0  0  0
  9 10  1  0  0  0
 10 11  1  0  0  0
 10 12  1  0  0  0
 12 13  1  0  0  0
 13 14  1  0  0  0
 13 26  1  0  0  0
 14 15  1  0  0  0
 15 16  1  0  0  0
 16 17  1  0  0  0
 17 18  1  0  0  0
 18 19  1  0  0  0
 18 25  1  0  0  0
 19 20  1  0  0  0
 20 21  1  0  0  0
 20 24  1  0  0  0
 21 22  1  0  0  0
 21 23  1  0  0  0
 23 51  1  0  0  0
 23 52  1  0  0  0
 24 53  1  0  0  0
 25 54  1  0  0  0
 26 55  1  0  0  0
 27 28  1  0  0  0
 28 29  2  0  0  0
 28 30  1  0  0  0
 30 31  1  0  0  0
 31 32  1  0  0  0
 31 36  1  0  0  0
 32 33  1  0  0  0
 33 34  2  0  0  0
 33 35  1  0  0  0
 35 56  1  0  0  0
 36 37  2  0  0  0
 36 38  1  0  0  0
 38 57  1  0  0  0
 39 40  1  0  0  0
 40 41  2  0  0  0
 40 42  1  0  0  0
 42 43  1  0  0  0
 43 44  1  0  0  0
 43 48  1  0  0  0
 44 45  1  0  0  0
 45 46  2  0  0  0
 45 47  1  0  0  0
 47 58  1  0  0  0
 48 49  2  0  0  0
 48 50  1  0  0  0
 50 59  1  0  0  0
M  END
>  <AUTHOR>
    GENERATED BY OPEN BABEL 2.4.1

>  <CHROM.1>
70.35031497,-145.59683167,87.31300824,-68.54970762,44.16210746,-66.76547744
-97.97330934,157.20072936,100.91435994,77.45000737,166.92202799,-66.88905035
68.31123131,-153.85372675,-50.53570575,135.74413101,-50.89292220,-120.82933845
57.55513072,-64.58789438,176.73245113,157.05109055,-58.43674438,6.50131073
-178.05523289,101.29002465,-75.06328047,-5.83073053,112.10195396,162.83428853
-8.42448472,-30.47683047,-29.05070821,82.48985492,-140.92385832,-7.84778703
-111.45605485,4.92482615,-6.81637382,-1.91196875,-0.46411802,3.93067662,0.30778553
0.10868684,0.26478498

>  <COMPND>
    UNNAMED

>  <MASTER>
        0    0    0    0    0    0    0    0  109    0  109    0

>  <Name>
FB1.pdb

>  <RI>
0

>  <Rbt.Current_Directory>
/home/fc/tossine/F10/p3/1_clust04

>  <Rbt.Executable>
rbdock/0.1.0

>  <Rbt.Library>
librxdock.so/0.1.0

>  <Rbt.Parameter_File>
/cluster/rxdock/data/scripts/dock.prm

>  <Rbt.Receptor>
rx_3.prm

>  <SCORE>
31.9507

>  <SCORE.INTER>
21.2616

>  <SCORE.INTER.CONST>
1

>  <SCORE.INTER.POLAR>
-1.15536

>  <SCORE.INTER.REPUL>
0.196881

>  <SCORE.INTER.ROT>
32

>  <SCORE.INTER.VDW>
-13.1945

>  <SCORE.INTER.norm>
0.425233

>  <SCORE.INTRA>
9.11428

>  <SCORE.INTRA.DIHEDRAL>
19.0344

>  <SCORE.INTRA.DIHEDRAL.0>
47.3121

>  <SCORE.INTRA.POLAR>
-0.430554

>  <SCORE.INTRA.POLAR.0>
-1.47808

>  <SCORE.INTRA.REPUL>
0

>  <SCORE.INTRA.REPUL.0>
0

>  <SCORE.INTRA.VDW>
1.06097

>  <SCORE.INTRA.VDW.0>
-2.78316

>  <SCORE.INTRA.norm>
0.182286

>  <SCORE.RESTR>
1.57479

>  <SCORE.RESTR.CAVITY>
1.57479

>  <SCORE.RESTR.norm>
0.0314958

>  <SCORE.SYSTEM>
0

>  <SCORE.SYSTEM.CONST>
0

>  <SCORE.SYSTEM.DIHEDRAL>
0

>  <SCORE.SYSTEM.norm>
0

>  <SCORE.heavy>
50

>  <SCORE.norm>
0.639014

$$$$
