FB1.pdb
  RxDock  10092021563D
librxdock.so/0.1.0
 59 58  0  0  0  0  0  0  0  0999 V2000
    3.4669   -0.4073    5.4747 C   0  0  0  0  0  0
    2.5475    0.1784    4.4057 C   0  0  0  0  0  0
    2.9210    1.6310    4.0671 C   0  0  0  0  0  0
    2.3788    2.1044    2.6953 C   0  0  0  0  0  0
    3.0732    1.4527    1.4489 C   0  0  0  0  0  0
    4.5895    1.7441    1.5302 C   0  0  0  0  0  0
    2.8011   -0.1049    1.3148 C   0  0  0  0  0  0
    1.2698   -0.5739    1.2829 C   0  0  0  0  0  0
    0.7406   -2.0023    1.7390 C   0  0  0  0  0  0
    0.3130   -3.0152    0.5092 C   0  0  0  0  0  0
    1.0864   -4.3233    0.6670 C   0  0  0  0  0  0
   -1.2446   -3.3287    0.3658 C   0  0  0  0  0  0
   -2.0820   -4.2567    1.3935 C   0  0  0  0  0  0
   -2.1369   -3.9675    2.9328 C   0  0  0  0  0  0
   -1.3919   -4.9771    3.9202 C   0  0  0  0  0  0
   -2.1039   -5.7631    5.0906 C   0  0  0  0  0  0
   -3.3017   -6.6951    4.7679 C   0  0  0  0  0  0
   -2.9981   -7.9423    3.8506 C   0  0  0  0  0  0
   -3.2891   -7.7720    2.3543 C   0  0  0  0  0  0
   -4.7676   -7.8441    1.8778 C   0  0  0  0  0  0
   -5.1397   -8.5906    0.5626 C   0  0  0  0  0  0
   -6.6105   -8.5796    0.1702 C   0  0  0  0  0  0
   -4.2919   -8.1377   -0.5566 N   0  0  0  0  0  0
   -5.4576   -8.5679    2.9284 O   0  0  0  0  0  0
   -1.6163   -8.2815    4.0094 O   0  0  0  0  0  0
   -3.4451   -4.1667    0.9460 O   0  0  0  0  0  0
    0.5399    0.3641    2.1194 O   0  0  0  0  0  0
   -0.7952    0.4795    1.8969 C   0  0  0  0  0  0
   -1.4801   -0.2691    1.2261 O   0  0  0  0  0  0
   -1.3140    1.6371    2.7046 C   0  0  0  0  0  0
   -1.4947    1.2865    4.1902 C   0  0  0  0  0  0
   -1.4453    2.5228    5.0970 C   0  0  0  0  0  0
   -0.0555    3.1145    5.1367 C   0  0  0  0  0  0
    0.3094    4.0381    4.4173 O   0  0  0  0  0  0
    0.7474    2.5326    6.0398 O   0  0  0  0  0  0
   -2.8677    0.6092    4.2998 C   0  0  0  0  0  0
   -3.8617    1.1810    4.7210 O   0  0  0  0  0  0
   -2.8778   -0.6819    3.9406 O   0  0  0  0  0  0
    3.5838   -0.6911    0.1996 O   0  0  0  0  0  0
    3.1947   -0.4076   -1.0990 C   0  0  0  0  0  0
    2.1592    0.1686   -1.4056 O   0  0  0  0  0  0
    4.2150   -0.8987   -2.1345 C   0  0  0  0  0  0
    5.2440   -1.9544   -1.6236 C   0  0  0  0  0  0
    5.9494   -2.8405   -2.6665 C   0  0  0  0  0  0
    6.0316   -2.1993   -4.0217 C   0  0  0  0  0  0
    5.6243   -2.6863   -5.0674 O   0  0  0  0  0  0
    6.5991   -0.9841   -3.9809 O   0  0  0  0  0  0
    6.3304   -1.3906   -0.6993 C   0  0  0  0  0  0
    7.2632   -2.0558   -0.2943 O   0  0  0  0  0  0
    6.2457   -0.0679   -0.4453 O   0  0  0  0  0  0
   -4.5238   -7.1712   -0.7814 H   0  0  0  0  0  0
   -4.5428   -8.6702   -1.3927 H   0  0  0  0  0  0
   -6.4087   -8.3986    2.7609 H   0  0  0  0  0  0
   -1.0804   -7.5421    3.6681 H   0  0  0  0  0  0
   -3.7684   -5.0687    0.7833 H   0  0  0  0  0  0
    1.6522    2.8965    6.0886 H   0  0  0  0  0  0
   -3.7422   -1.1409    4.0850 H   0  0  0  0  0  0
    6.4581   -0.5781   -4.8621 H   0  0  0  0  0  0
    6.9623    0.2977    0.1196 H   0  0  0  0  0  0
  1  2  1  0  0  0
  2  3  1  0  0  0
  3  4  1  0  0  0
  4  5  1  0  0  0
  5  6  1  0  0  0
  5  7  1  0  0  0
  7  8  1  0  0  0
  7 39  1  0  0  0
  8  9  1  0  0  0
  8 27  1  0  0  0
  9 10  1  0  0  0
 10 11  1  0  0  0
 10 12  1  0  0  0
 12 13  1  0  0  0
 13 14  1  0  0  0
 13 26  1  0  0  0
 14 15  1  0  0  0
 15 16  1  0  0  0
 16 17  1  0  0  0
 17 18  1  0  0  0
 18 19  1  0  0  0
 18 25  1  0  0  0
 19 20  1  0  0  0
 20 21  1  0  0  0
 20 24  1  0  0  0
 21 22  1  0  0  0
 21 23  1  0  0  0
 23 51  1  0  0  0
 23 52  1  0  0  0
 24 53  1  0  0  0
 25 54  1  0  0  0
 26 55  1  0  0  0
 27 28  1  0  0  0
 28 29  2  0  0  0
 28 30  1  0  0  0
 30 31  1  0  0  0
 31 32  1  0  0  0
 31 36  1  0  0  0
 32 33  1  0  0  0
 33 34  2  0  0  0
 33 35  1  0  0  0
 35 56  1  0  0  0
 36 37  2  0  0  0
 36 38  1  0  0  0
 38 57  1  0  0  0
 39 40  1  0  0  0
 40 41  2  0  0  0
 40 42  1  0  0  0
 42 43  1  0  0  0
 43 44  1  0  0  0
 43 48  1  0  0  0
 44 45  1  0  0  0
 45 46  2  0  0  0
 45 47  1  0  0  0
 47 58  1  0  0  0
 48 49  2  0  0  0
 48 50  1  0  0  0
 50 59  1  0  0  0
M  END
>  <AUTHOR>
    GENERATED BY OPEN BABEL 2.4.1

>  <CHROM.1>
159.96476625,-70.45783865,-57.33565856,55.20588369,-153.74385875,-72.59750914
-105.54205796,157.61890824,125.24874756,-71.61535086,55.98171003,-110.45147799
124.34820787,-121.93169613,57.52696892,63.71890925,-96.05189688,-76.95753583
-64.68004231,-139.30886434,-178.82570439,164.66304181,-67.99699629,12.83057670
-77.89127304,156.07538860,-68.87231918,-102.33403459,95.18550605,-179.88377458
174.92135841,-8.79621277,17.16916393,158.92043522,25.75629628,-174.42226417
-124.89196377,-169.55525801,-177.78197917,0.45245520,-2.04698334,1.64164300
0.40069677,0.60087702,0.56513947

>  <COMPND>
    UNNAMED

>  <MASTER>
        0    0    0    0    0    0    0    0  109    0  109    0

>  <Name>
FB1.pdb

>  <RI>
0

>  <Rbt.Current_Directory>
/home/fc/tossine/F10/p3/1_clust04

>  <Rbt.Executable>
rbdock/0.1.0

>  <Rbt.Library>
librxdock.so/0.1.0

>  <Rbt.Parameter_File>
/cluster/rxdock/data/scripts/dock.prm

>  <Rbt.Receptor>
rx_4.prm

>  <SCORE>
30.8204

>  <SCORE.INTER>
10.1622

>  <SCORE.INTER.CONST>
1

>  <SCORE.INTER.POLAR>
-2.65502

>  <SCORE.INTER.REPUL>
1.42825

>  <SCORE.INTER.ROT>
32

>  <SCORE.INTER.VDW>
-25.352

>  <SCORE.INTER.norm>
0.203245

>  <SCORE.INTRA>
14.6196

>  <SCORE.INTRA.DIHEDRAL>
22.7033

>  <SCORE.INTRA.DIHEDRAL.0>
47.3121

>  <SCORE.INTRA.POLAR>
1.47808

>  <SCORE.INTRA.POLAR.0>
-1.47808

>  <SCORE.INTRA.REPUL>
0

>  <SCORE.INTRA.REPUL.0>
0

>  <SCORE.INTRA.VDW>
-1.75755

>  <SCORE.INTRA.VDW.0>
-2.78316

>  <SCORE.INTRA.norm>
0.292391

>  <SCORE.RESTR>
6.03856

>  <SCORE.RESTR.CAVITY>
6.03856

>  <SCORE.RESTR.norm>
0.120771

>  <SCORE.SYSTEM>
0

>  <SCORE.SYSTEM.CONST>
0

>  <SCORE.SYSTEM.DIHEDRAL>
0

>  <SCORE.SYSTEM.norm>
0

>  <SCORE.heavy>
50

>  <SCORE.norm>
0.616407

$$$$
