FB1.pdb
  RxDock  10092019053D
librxdock.so/0.1.0
 59 58  0  0  0  0  0  0  0  0999 V2000
   -6.2849    0.5797    7.1093 C   0  0  0  0  0  0
   -7.1083    0.1171    5.9095 C   0  0  0  0  0  0
   -6.5273    0.6388    4.5850 C   0  0  0  0  0  0
   -5.4048   -0.2588    4.0069 C   0  0  0  0  0  0
   -5.8408   -1.7267    3.6669 C   0  0  0  0  0  0
   -7.1416   -1.6661    2.8333 C   0  0  0  0  0  0
   -4.7216   -2.5609    2.9123 C   0  0  0  0  0  0
   -3.2339   -1.9675    2.9368 C   0  0  0  0  0  0
   -2.6839   -0.8360    1.9646 C   0  0  0  0  0  0
   -1.4956   -1.3211    0.9282 C   0  0  0  0  0  0
   -1.9107   -0.9488   -0.4942 C   0  0  0  0  0  0
   -0.0324   -0.7581    1.2232 C   0  0  0  0  0  0
    0.3843    0.7999    1.0904 C   0  0  0  0  0  0
    1.8729    1.2820    1.1797 C   0  0  0  0  0  0
    3.0057    0.3673    0.5244 C   0  0  0  0  0  0
    3.0311   -0.0643   -0.9947 C   0  0  0  0  0  0
    3.8466   -1.3134   -1.4211 C   0  0  0  0  0  0
    5.2897   -1.0495   -2.0017 C   0  0  0  0  0  0
    6.4449   -1.0864   -0.9934 C   0  0  0  0  0  0
    6.9751    0.2625   -0.4298 C   0  0  0  0  0  0
    7.3578    0.3962    1.0739 C   0  0  0  0  0  0
    8.0949    1.6663    1.4750 C   0  0  0  0  0  0
    6.1823    0.1737    1.9371 N   0  0  0  0  0  0
    8.2084    0.5041   -1.1540 O   0  0  0  0  0  0
    5.5421   -2.0254   -3.0184 O   0  0  0  0  0  0
   -0.0586    1.1905   -0.2203 O   0  0  0  0  0  0
   -3.0351   -1.4241    4.2701 O   0  0  0  0  0  0
   -1.7528   -1.3017    4.7015 C   0  0  0  0  0  0
   -1.3621   -0.5828    5.6014 O   0  0  0  0  0  0
   -0.9007   -2.2839    3.9461 C   0  0  0  0  0  0
   -0.9821   -3.7048    4.5266 C   0  0  0  0  0  0
   -1.8686   -4.6336    3.6871 C   0  0  0  0  0  0
   -2.2478   -5.8734    4.4633 C   0  0  0  0  0  0
   -2.9597   -5.8573    5.4617 O   0  0  0  0  0  0
   -1.7312   -7.0015    3.9541 O   0  0  0  0  0  0
    0.4586   -4.2338    4.5505 C   0  0  0  0  0  0
    1.3984   -3.5896    4.9909 O   0  0  0  0  0  0
    0.6115   -5.4467    4.0014 O   0  0  0  0  0  0
   -4.7558   -3.9883    3.3138 O   0  0  0  0  0  0
   -5.5358   -4.8623    2.5749 C   0  0  0  0  0  0
   -6.3051   -4.5261    1.6842 O   0  0  0  0  0  0
   -5.3323   -6.3240    2.9949 C   0  0  0  0  0  0
   -5.4080   -7.3760    1.8450 C   0  0  0  0  0  0
   -4.4255   -8.5607    1.8826 C   0  0  0  0  0  0
   -4.2860   -9.2494    0.5557 C   0  0  0  0  0  0
   -4.2673  -10.4597    0.3784 O   0  0  0  0  0  0
   -4.1983   -8.3832   -0.4653 O   0  0  0  0  0  0
   -6.8071   -7.9554    1.6020 C   0  0  0  0  0  0
   -7.0912   -9.1141    1.8333 O   0  0  0  0  0  0
   -7.7432   -7.0652    1.2115 O   0  0  0  0  0  0
    6.4498   -0.4233    2.7184 H   0  0  0  0  0  0
    5.4916   -0.3699    1.4147 H   0  0  0  0  0  0
    7.9222    0.6910   -2.0730 H   0  0  0  0  0  0
    4.7953   -2.0119   -3.6451 H   0  0  0  0  0  0
   -1.0133    1.3665   -0.1750 H   0  0  0  0  0  0
   -1.9732   -7.8210    4.4268 H   0  0  0  0  0  0
    1.5457   -5.7715    3.9782 H   0  0  0  0  0  0
   -4.2299   -8.9148   -1.2886 H   0  0  0  0  0  0
   -7.3956   -6.2000    0.9005 H   0  0  0  0  0  0
  1  2  1  0  0  0
  2  3  1  0  0  0
  3  4  1  0  0  0
  4  5  1  0  0  0
  5  6  1  0  0  0
  5  7  1  0  0  0
  7  8  1  0  0  0
  7 39  1  0  0  0
  8  9  1  0  0  0
  8 27  1  0  0  0
  9 10  1  0  0  0
 10 11  1  0  0  0
 10 12  1  0  0  0
 12 13  1  0  0  0
 13 14  1  0  0  0
 13 26  1  0  0  0
 14 15  1  0  0  0
 15 16  1  0  0  0
 16 17  1  0  0  0
 17 18  1  0  0  0
 18 19  1  0  0  0
 18 25  1  0  0  0
 19 20  1  0  0  0
 20 21  1  0  0  0
 20 24  1  0  0  0
 21 22  1  0  0  0
 21 23  1  0  0  0
 23 51  1  0  0  0
 23 52  1  0  0  0
 24 53  1  0  0  0
 25 54  1  0  0  0
 26 55  1  0  0  0
 27 28  1  0  0  0
 28 29  2  0  0  0
 28 30  1  0  0  0
 30 31  1  0  0  0
 31 32  1  0  0  0
 31 36  1  0  0  0
 32 33  1  0  0  0
 33 34  2  0  0  0
 33 35  1  0  0  0
 35 56  1  0  0  0
 36 37  2  0  0  0
 36 38  1  0  0  0
 38 57  1  0  0  0
 39 40  1  0  0  0
 40 41  2  0  0  0
 40 42  1  0  0  0
 42 43  1  0  0  0
 43 44  1  0  0  0
 43 48  1  0  0  0
 44 45  1  0  0  0
 45 46  2  0  0  0
 45 47  1  0  0  0
 47 58  1  0  0  0
 48 49  2  0  0  0
 48 50  1  0  0  0
 50 59  1  0  0  0
M  END
>  <AUTHOR>
    GENERATED BY OPEN BABEL 2.4.1

>  <CHROM.1>
85.31277261,60.93662492,49.10380689,15.19354173,-82.10985801,91.15160760
-114.43915373,157.09723872,126.77333512,-66.75654495,-170.64113941,37.52231906
79.84504004,57.55265784,-158.58125135,-97.56955576,92.60946029,-98.27513393
51.87371473,139.52122277,169.41682329,68.86467279,136.25697829,160.00123833
-81.13424416,103.25665588,-163.85791197,47.69584259,65.87865089,-178.94800941
177.31279537,-7.26578282,-144.79990239,141.27095555,-161.91394507,-112.15941599
-136.19243019,-172.72170343,15.14770286,-1.30806965,-2.89449118,2.13877733
2.80426180,-0.40335582,-2.77070565

>  <COMPND>
    UNNAMED

>  <MASTER>
        0    0    0    0    0    0    0    0  109    0  109    0

>  <Name>
FB1.pdb

>  <RI>
0

>  <Rbt.Current_Directory>
/home/fc/tossine/F10/p3/1_clust04

>  <Rbt.Executable>
rbdock/0.1.0

>  <Rbt.Library>
librxdock.so/0.1.0

>  <Rbt.Parameter_File>
/cluster/rxdock/data/scripts/dock.prm

>  <Rbt.Receptor>
rx_1.prm

>  <SCORE>
108.672

>  <SCORE.INTER>
78.5719

>  <SCORE.INTER.CONST>
1

>  <SCORE.INTER.POLAR>
-2.18857

>  <SCORE.INTER.REPUL>
0.435305

>  <SCORE.INTER.ROT>
32

>  <SCORE.INTER.VDW>
46.4365

>  <SCORE.INTER.norm>
1.57144

>  <SCORE.INTRA>
28.2564

>  <SCORE.INTRA.DIHEDRAL>
33.2839

>  <SCORE.INTRA.DIHEDRAL.0>
47.3121

>  <SCORE.INTRA.POLAR>
1.12698

>  <SCORE.INTRA.POLAR.0>
-1.47808

>  <SCORE.INTRA.REPUL>
0

>  <SCORE.INTRA.REPUL.0>
0

>  <SCORE.INTRA.VDW>
7.78272

>  <SCORE.INTRA.VDW.0>
-2.78316

>  <SCORE.INTRA.norm>
0.565129

>  <SCORE.RESTR>
1.84374

>  <SCORE.RESTR.CAVITY>
1.84374

>  <SCORE.RESTR.norm>
0.0368749

>  <SCORE.SYSTEM>
0

>  <SCORE.SYSTEM.CONST>
0

>  <SCORE.SYSTEM.DIHEDRAL>
0

>  <SCORE.SYSTEM.norm>
0

>  <SCORE.heavy>
50

>  <SCORE.norm>
2.17344

$$$$
