FB1.pdb
  RxDock  10092019113D
librxdock.so/0.1.0
 59 58  0  0  0  0  0  0  0  0999 V2000
    2.7255    1.9721    3.8356 C   0  0  0  0  0  0
    1.7347    2.4404    4.8987 C   0  0  0  0  0  0
    1.1198    1.2573    5.6645 C   0  0  0  0  0  0
    0.1934    0.3724    4.7936 C   0  0  0  0  0  0
   -1.1335    1.0650    4.3246 C   0  0  0  0  0  0
   -0.9050    1.6442    2.9093 C   0  0  0  0  0  0
   -2.3933    0.1004    4.3464 C   0  0  0  0  0  0
   -3.8332    0.7901    4.4772 C   0  0  0  0  0  0
   -4.2706    2.1387    3.7574 C   0  0  0  0  0  0
   -3.4081    3.4757    4.1931 C   0  0  0  0  0  0
   -4.1800    4.7170    3.7487 C   0  0  0  0  0  0
   -3.0388    3.6008    5.7400 C   0  0  0  0  0  0
   -2.4414    4.9396    6.4250 C   0  0  0  0  0  0
   -1.5394    5.9536    5.6413 C   0  0  0  0  0  0
   -0.2264    5.3997    4.9212 C   0  0  0  0  0  0
    0.7361    6.2788    4.0295 C   0  0  0  0  0  0
    0.8973    7.7905    4.3396 C   0  0  0  0  0  0
    1.7942    8.1640    5.5827 C   0  0  0  0  0  0
    1.6414    7.2742    6.8226 C   0  0  0  0  0  0
    1.0694    7.9108    8.1210 C   0  0  0  0  0  0
   -0.3957    8.4369    8.1654 C   0  0  0  0  0  0
   -0.6413    9.6883    8.9967 C   0  0  0  0  0  0
   -0.9392    8.5938    6.8029 N   0  0  0  0  0  0
    1.1157    6.8453    9.1040 O   0  0  0  0  0  0
    3.1633    8.1312    5.1653 O   0  0  0  0  0  0
   -3.5960    5.6965    6.8257 O   0  0  0  0  0  0
   -4.7984   -0.1936    4.0154 O   0  0  0  0  0  0
   -6.0966    0.0059    4.3621 C   0  0  0  0  0  0
   -6.5313    0.9319    5.0201 O   0  0  0  0  0  0
   -6.9329   -1.0596    3.7088 C   0  0  0  0  0  0
   -8.3943   -1.0373    4.1845 C   0  0  0  0  0  0
   -9.1743    0.1634    3.6338 C   0  0  0  0  0  0
   -9.9704    0.8426    4.7239 C   0  0  0  0  0  0
  -11.1563    1.1352    4.6157 O   0  0  0  0  0  0
   -9.2546    1.0960    5.8295 O   0  0  0  0  0  0
   -9.0211   -2.3456    3.6830 C   0  0  0  0  0  0
   -8.5335   -3.0184    2.7874 O   0  0  0  0  0  0
  -10.1790   -2.6670    4.2761 O   0  0  0  0  0  0
   -2.3435   -0.8707    3.2264 O   0  0  0  0  0  0
   -2.0062   -2.1842    3.5075 C   0  0  0  0  0  0
   -1.6269   -2.5874    4.5992 O   0  0  0  0  0  0
   -2.1603   -3.1006    2.2865 C   0  0  0  0  0  0
   -1.2279   -4.3513    2.2563 C   0  0  0  0  0  0
   -1.7545   -5.6611    2.8709 C   0  0  0  0  0  0
   -1.7000   -5.6685    4.3713 C   0  0  0  0  0  0
   -0.7893   -5.2207    5.0545 O   0  0  0  0  0  0
   -2.7940   -6.2165    4.9219 O   0  0  0  0  0  0
   -0.6663   -4.6947    0.8711 C   0  0  0  0  0  0
   -1.0183   -4.1261   -0.1436 O   0  0  0  0  0  0
    0.3313   -5.6035    0.8593 O   0  0  0  0  0  0
   -0.3749    9.2731    6.2943 H   0  0  0  0  0  0
   -1.8671    9.0184    6.8683 H   0  0  0  0  0  0
    0.3682    6.2572    8.8658 H   0  0  0  0  0  0
    3.4260    9.0353    4.9122 H   0  0  0  0  0  0
   -3.4101    6.0916    7.6940 H   0  0  0  0  0  0
   -9.7627    1.4572    6.5811 H   0  0  0  0  0  0
  -10.5453   -3.5469    4.0108 H   0  0  0  0  0  0
   -2.6273   -6.2688    5.8867 H   0  0  0  0  0  0
    0.7378   -5.7691   -0.0202 H   0  0  0  0  0  0
  1  2  1  0  0  0
  2  3  1  0  0  0
  3  4  1  0  0  0
  4  5  1  0  0  0
  5  6  1  0  0  0
  5  7  1  0  0  0
  7  8  1  0  0  0
  7 39  1  0  0  0
  8  9  1  0  0  0
  8 27  1  0  0  0
  9 10  1  0  0  0
 10 11  1  0  0  0
 10 12  1  0  0  0
 12 13  1  0  0  0
 13 14  1  0  0  0
 13 26  1  0  0  0
 14 15  1  0  0  0
 15 16  1  0  0  0
 16 17  1  0  0  0
 17 18  1  0  0  0
 18 19  1  0  0  0
 18 25  1  0  0  0
 19 20  1  0  0  0
 20 21  1  0  0  0
 20 24  1  0  0  0
 21 22  1  0  0  0
 21 23  1  0  0  0
 23 51  1  0  0  0
 23 52  1  0  0  0
 24 53  1  0  0  0
 25 54  1  0  0  0
 26 55  1  0  0  0
 27 28  1  0  0  0
 28 29  2  0  0  0
 28 30  1  0  0  0
 30 31  1  0  0  0
 31 32  1  0  0  0
 31 36  1  0  0  0
 32 33  1  0  0  0
 33 34  2  0  0  0
 33 35  1  0  0  0
 35 56  1  0  0  0
 36 37  2  0  0  0
 36 38  1  0  0  0
 38 57  1  0  0  0
 39 40  1  0  0  0
 40 41  2  0  0  0
 40 42  1  0  0  0
 42 43  1  0  0  0
 43 44  1  0  0  0
 43 48  1  0  0  0
 44 45  1  0  0  0
 45 46  2  0  0  0
 45 47  1  0  0  0
 47 58  1  0  0  0
 48 49  2  0  0  0
 48 50  1  0  0  0
 50 59  1  0  0  0
M  END
>  <AUTHOR>
    GENERATED BY OPEN BABEL 2.4.1

>  <CHROM.1>
-67.48339253,-67.47989581,95.32058878,155.75005084,39.30991660,105.14104334
-62.37073921,162.57391090,-163.91417292,-168.48039454,-30.59358526,-54.77538394
140.15540682,176.44273463,30.47039060,76.09821345,-40.24472659,-115.16193058
94.56561352,65.02744358,-144.20977650,-75.66834395,-61.08871097,0.19582628
172.42079641,72.01384016,-133.44464865,-18.41014364,-131.08349895,-174.46151432
-175.02029228,-6.86580358,152.15711612,91.50384846,-77.40403587,-6.96643778
-40.21863872,173.85706318,-175.34635787,-2.70015930,1.36655758,4.59927565
-1.10238144,-0.06456452,-2.81436024

>  <COMPND>
    UNNAMED

>  <MASTER>
        0    0    0    0    0    0    0    0  109    0  109    0

>  <Name>
FB1.pdb

>  <RI>
0

>  <Rbt.Current_Directory>
/home/fc/tossine/F10/p3/1_clust04

>  <Rbt.Executable>
rbdock/0.1.0

>  <Rbt.Library>
librxdock.so/0.1.0

>  <Rbt.Parameter_File>
/cluster/rxdock/data/scripts/dock.prm

>  <Rbt.Receptor>
rx_1.prm

>  <SCORE>
22.6741

>  <SCORE.INTER>
6.80576

>  <SCORE.INTER.CONST>
1

>  <SCORE.INTER.POLAR>
-2.91008

>  <SCORE.INTER.REPUL>
1.12284

>  <SCORE.INTER.ROT>
32

>  <SCORE.INTER.VDW>
-26.3142

>  <SCORE.INTER.norm>
0.136115

>  <SCORE.INTRA>
11.0949

>  <SCORE.INTRA.DIHEDRAL>
16.9887

>  <SCORE.INTRA.DIHEDRAL.0>
47.3121

>  <SCORE.INTRA.POLAR>
1.47808

>  <SCORE.INTRA.POLAR.0>
-1.47808

>  <SCORE.INTRA.REPUL>
0.0811598

>  <SCORE.INTRA.REPUL.0>
0

>  <SCORE.INTRA.VDW>
-2.83068

>  <SCORE.INTRA.VDW.0>
-2.78316

>  <SCORE.INTRA.norm>
0.221899

>  <SCORE.RESTR>
4.77337

>  <SCORE.RESTR.CAVITY>
4.77337

>  <SCORE.RESTR.norm>
0.0954674

>  <SCORE.SYSTEM>
0

>  <SCORE.SYSTEM.CONST>
0

>  <SCORE.SYSTEM.DIHEDRAL>
0

>  <SCORE.SYSTEM.norm>
0

>  <SCORE.heavy>
50

>  <SCORE.norm>
0.453481

$$$$
