FB1.pdb
  RxDock  10092021013D
librxdock.so/0.1.0
 59 58  0  0  0  0  0  0  0  0999 V2000
   -1.2973   -8.5830    5.0741 C   0  0  0  0  0  0
   -1.7889   -8.8552    3.6544 C   0  0  0  0  0  0
   -3.1571   -8.2047    3.3911 C   0  0  0  0  0  0
   -3.2270   -6.7181    3.8209 C   0  0  0  0  0  0
   -3.8174   -5.7445    2.7420 C   0  0  0  0  0  0
   -5.3050   -5.4910    3.0789 C   0  0  0  0  0  0
   -3.0221   -4.3769    2.6202 C   0  0  0  0  0  0
   -1.4671   -4.4724    2.2471 C   0  0  0  0  0  0
   -0.8861   -4.5982    0.7724 C   0  0  0  0  0  0
   -0.3817   -6.1098    0.3459 C   0  0  0  0  0  0
    1.0319   -6.3199    0.8859 C   0  0  0  0  0  0
   -1.3154   -7.3185    0.8064 C   0  0  0  0  0  0
   -2.1166   -8.2861   -0.2136 C   0  0  0  0  0  0
   -2.5409   -9.7450    0.1707 C   0  0  0  0  0  0
   -1.4603  -10.6880    0.8721 C   0  0  0  0  0  0
   -1.8132  -11.8243    1.9109 C   0  0  0  0  0  0
   -1.0970  -13.1974    1.8148 C   0  0  0  0  0  0
   -0.3321  -13.6859    3.1053 C   0  0  0  0  0  0
   -1.0002  -13.3734    4.4502 C   0  0  0  0  0  0
   -1.1311  -11.8847    4.8801 C   0  0  0  0  0  0
   -2.0980  -11.4752    6.0303 C   0  0  0  0  0  0
   -3.5414  -11.1964    5.6349 C   0  0  0  0  0  0
   -2.0333  -12.4439    7.1411 N   0  0  0  0  0  0
    0.1909  -11.5213    5.3537 O   0  0  0  0  0  0
   -0.1551  -15.1030    3.0039 O   0  0  0  0  0  0
   -3.3482   -7.5967   -0.4864 O   0  0  0  0  0  0
   -0.8476   -3.2689    2.7765 O   0  0  0  0  0  0
   -1.3115   -2.0802    2.3107 C   0  0  0  0  0  0
   -1.7478   -1.8652    1.1959 O   0  0  0  0  0  0
   -1.2924   -1.0866    3.4393 C   0  0  0  0  0  0
   -0.3835    0.1186    3.1494 C   0  0  0  0  0  0
   -0.9851    1.0729    2.1098 C   0  0  0  0  0  0
   -0.3317    0.8901    0.7596 C   0  0  0  0  0  0
   -0.6456    1.5303   -0.2381 O   0  0  0  0  0  0
    0.6317   -0.0430    0.7542 O   0  0  0  0  0  0
   -0.2068    0.8457    4.4896 C   0  0  0  0  0  0
   -0.9487    1.7404    4.8660 O   0  0  0  0  0  0
    0.8619    0.4518    5.1958 O   0  0  0  0  0  0
   -3.7424   -3.4141    1.7518 O   0  0  0  0  0  0
   -4.7642   -2.6622    2.3073 C   0  0  0  0  0  0
   -4.6279   -1.8873    3.2451 O   0  0  0  0  0  0
   -6.1109   -2.9039    1.6129 C   0  0  0  0  0  0
   -7.2829   -1.9794    2.0673 C   0  0  0  0  0  0
   -8.5985   -2.0343    1.2695 C   0  0  0  0  0  0
   -9.4644   -0.8263    1.4824 C   0  0  0  0  0  0
   -9.5798   -0.2069    2.5310 O   0  0  0  0  0  0
  -10.1149   -0.4584    0.3680 O   0  0  0  0  0  0
   -7.6484   -2.0964    3.5522 C   0  0  0  0  0  0
   -8.6167   -2.7154    3.9470 O   0  0  0  0  0  0
   -6.7609   -1.5536    4.4119 O   0  0  0  0  0  0
   -1.2462  -12.2085    7.7441 H   0  0  0  0  0  0
   -1.8061  -13.3646    6.7588 H   0  0  0  0  0  0
    0.1754  -11.7289    6.3118 H   0  0  0  0  0  0
    0.2781  -15.2953    2.1519 H   0  0  0  0  0  0
   -3.1301   -6.7383   -0.8866 H   0  0  0  0  0  0
    0.6048   -0.6651    0.0021 H   0  0  0  0  0  0
    1.0683    1.0204    5.9787 H   0  0  0  0  0  0
  -10.4972    0.4270    0.5448 H   0  0  0  0  0  0
   -6.7328   -1.9675    5.3030 H   0  0  0  0  0  0
  1  2  1  0  0  0
  2  3  1  0  0  0
  3  4  1  0  0  0
  4  5  1  0  0  0
  5  6  1  0  0  0
  5  7  1  0  0  0
  7  8  1  0  0  0
  7 39  1  0  0  0
  8  9  1  0  0  0
  8 27  1  0  0  0
  9 10  1  0  0  0
 10 11  1  0  0  0
 10 12  1  0  0  0
 12 13  1  0  0  0
 13 14  1  0  0  0
 13 26  1  0  0  0
 14 15  1  0  0  0
 15 16  1  0  0  0
 16 17  1  0  0  0
 17 18  1  0  0  0
 18 19  1  0  0  0
 18 25  1  0  0  0
 19 20  1  0  0  0
 20 21  1  0  0  0
 20 24  1  0  0  0
 21 22  1  0  0  0
 21 23  1  0  0  0
 23 51  1  0  0  0
 23 52  1  0  0  0
 24 53  1  0  0  0
 25 54  1  0  0  0
 26 55  1  0  0  0
 27 28  1  0  0  0
 28 29  2  0  0  0
 28 30  1  0  0  0
 30 31  1  0  0  0
 31 32  1  0  0  0
 31 36  1  0  0  0
 32 33  1  0  0  0
 33 34  2  0  0  0
 33 35  1  0  0  0
 35 56  1  0  0  0
 36 37  2  0  0  0
 36 38  1  0  0  0
 38 57  1  0  0  0
 39 40  1  0  0  0
 40 41  2  0  0  0
 40 42  1  0  0  0
 42 43  1  0  0  0
 43 44  1  0  0  0
 43 48  1  0  0  0
 44 45  1  0  0  0
 45 46  2  0  0  0
 45 47  1  0  0  0
 47 58  1  0  0  0
 48 49  2  0  0  0
 48 50  1  0  0  0
 50 59  1  0  0  0
M  END
>  <AUTHOR>
    GENERATED BY OPEN BABEL 2.4.1

>  <CHROM.1>
48.71153279,131.14602958,98.60546067,58.84357879,84.13255261,82.68812985
-103.07910721,-59.76506687,-82.40922606,114.84719599,155.10074931,-46.32661564
60.02274609,149.11661652,137.53531482,123.71760824,37.78958886,-65.99398320
53.73385017,164.45933401,-86.82167481,-90.30609810,83.59018764,-32.03543256
119.20431074,72.95232533,-102.80636135,-90.50006702,179.43878560,134.69241748
169.90605581,59.93127147,-173.33263243,171.34801829,-160.84334193,-102.50964439
-35.40030827,-168.46173189,-151.79948027,-2.83264017,-5.25777092,2.66806405
-1.31714619,-0.00409054,-0.10449243

>  <COMPND>
    UNNAMED

>  <MASTER>
        0    0    0    0    0    0    0    0  109    0  109    0

>  <Name>
FB1.pdb

>  <RI>
0

>  <Rbt.Current_Directory>
/home/fc/tossine/F10/p3/1_clust04

>  <Rbt.Executable>
rbdock/0.1.0

>  <Rbt.Library>
librxdock.so/0.1.0

>  <Rbt.Parameter_File>
/cluster/rxdock/data/scripts/dock.prm

>  <Rbt.Receptor>
rx_3.prm

>  <SCORE>
44.5077

>  <SCORE.INTER>
1.34389

>  <SCORE.INTER.CONST>
1

>  <SCORE.INTER.POLAR>
-2.05454

>  <SCORE.INTER.REPUL>
0.767992

>  <SCORE.INTER.ROT>
32

>  <SCORE.INTER.VDW>
-32.9106

>  <SCORE.INTER.norm>
0.0268778

>  <SCORE.INTRA>
40.1588

>  <SCORE.INTRA.DIHEDRAL>
70.8606

>  <SCORE.INTRA.DIHEDRAL.0>
47.3121

>  <SCORE.INTRA.POLAR>
1.47808

>  <SCORE.INTRA.POLAR.0>
-1.47808

>  <SCORE.INTRA.REPUL>
0

>  <SCORE.INTRA.REPUL.0>
0

>  <SCORE.INTRA.VDW>
-0.296972

>  <SCORE.INTRA.VDW.0>
-2.78316

>  <SCORE.INTRA.norm>
0.803175

>  <SCORE.RESTR>
3.00508

>  <SCORE.RESTR.CAVITY>
3.00508

>  <SCORE.RESTR.norm>
0.0601015

>  <SCORE.SYSTEM>
0

>  <SCORE.SYSTEM.CONST>
0

>  <SCORE.SYSTEM.DIHEDRAL>
0

>  <SCORE.SYSTEM.norm>
0

>  <SCORE.heavy>
50

>  <SCORE.norm>
0.890155

$$$$
