FB1.pdb
  RxDock  10092020153D
librxdock.so/0.1.0
 59 58  0  0  0  0  0  0  0  0999 V2000
    1.1580    5.4677    9.7329 C   0  0  0  0  0  0
    0.3425    4.1769    9.7193 C   0  0  0  0  0  0
    0.6295    3.3353    8.4649 C   0  0  0  0  0  0
    0.1147    3.9832    7.1554 C   0  0  0  0  0  0
   -1.4374    3.9027    6.9431 C   0  0  0  0  0  0
   -2.1100    4.9286    7.8843 C   0  0  0  0  0  0
   -1.8836    4.1355    5.4383 C   0  0  0  0  0  0
   -3.2106    3.3825    4.9501 C   0  0  0  0  0  0
   -4.4271    2.9716    5.8880 C   0  0  0  0  0  0
   -4.3109    1.4731    6.5680 C   0  0  0  0  0  0
   -2.9202    1.3262    7.1833 C   0  0  0  0  0  0
   -5.4186    1.1070    7.6560 C   0  0  0  0  0  0
   -6.8884    0.5329    7.2972 C   0  0  0  0  0  0
   -7.3353    0.2283    5.8263 C   0  0  0  0  0  0
   -8.8018    0.6685    5.3737 C   0  0  0  0  0  0
   -9.6438   -0.0631    4.2556 C   0  0  0  0  0  0
  -10.1536   -1.5073    4.5044 C   0  0  0  0  0  0
  -10.2845   -2.4375    3.2369 C   0  0  0  0  0  0
   -8.9922   -3.1007    2.7445 C   0  0  0  0  0  0
   -7.6814   -2.2641    2.7613 C   0  0  0  0  0  0
   -6.2935   -2.9661    2.6822 C   0  0  0  0  0  0
   -5.0741   -2.0843    2.9123 C   0  0  0  0  0  0
   -6.2559   -4.1559    3.5536 N   0  0  0  0  0  0
   -7.7548   -1.4417    1.5688 O   0  0  0  0  0  0
  -11.2360   -3.4639    3.5386 O   0  0  0  0  0  0
   -6.9702   -0.7279    7.9829 O   0  0  0  0  0  0
   -3.8101    4.2325    3.9350 O   0  0  0  0  0  0
   -4.4374    5.3582    4.3648 C   0  0  0  0  0  0
   -4.8863    5.5508    5.4787 O   0  0  0  0  0  0
   -4.3973    6.3770    3.2595 C   0  0  0  0  0  0
   -4.9593    5.8344    1.9358 C   0  0  0  0  0  0
   -6.3772    5.2685    2.0863 C   0  0  0  0  0  0
   -6.4216    3.8039    1.7170 C   0  0  0  0  0  0
   -7.1165    3.3531    0.8128 O   0  0  0  0  0  0
   -5.6232    3.0374    2.4746 O   0  0  0  0  0  0
   -4.9682    7.0217    0.9630 C   0  0  0  0  0  0
   -5.9954    7.5225    0.5313 O   0  0  0  0  0  0
   -3.7511    7.4358    0.5846 O   0  0  0  0  0  0
   -1.9122    5.5807    5.1057 O   0  0  0  0  0  0
   -0.7075    6.2534    4.9861 C   0  0  0  0  0  0
    0.3509    5.7333    4.6580 O   0  0  0  0  0  0
   -0.8380    7.7469    5.3127 C   0  0  0  0  0  0
   -0.0438    8.7156    4.3824 C   0  0  0  0  0  0
    1.4940    8.6450    4.4086 C   0  0  0  0  0  0
    2.1457    9.7724    3.6610 C   0  0  0  0  0  0
    2.4223    9.7726    2.4694 O   0  0  0  0  0  0
    2.3923   10.8331    4.4448 O   0  0  0  0  0  0
   -0.4737    8.6817    2.9106 C   0  0  0  0  0  0
   -0.8744    9.6634    2.3170 O   0  0  0  0  0  0
   -0.2778    7.5065    2.2767 O   0  0  0  0  0  0
   -5.2945   -4.3255    3.8461 H   0  0  0  0  0  0
   -6.5108   -4.9757    2.9983 H   0  0  0  0  0  0
   -8.5154   -0.8439    1.7279 H   0  0  0  0  0  0
  -10.9141   -3.9584    4.3148 H   0  0  0  0  0  0
   -7.8595   -1.0920    7.8377 H   0  0  0  0  0  0
   -5.1174    3.5135    3.1608 H   0  0  0  0  0  0
   -3.0036    6.9028    0.9535 H   0  0  0  0  0  0
    2.7937   11.5195    3.8712 H   0  0  0  0  0  0
    0.2044    6.8250    2.7957 H   0  0  0  0  0  0
  1  2  1  0  0  0
  2  3  1  0  0  0
  3  4  1  0  0  0
  4  5  1  0  0  0
  5  6  1  0  0  0
  5  7  1  0  0  0
  7  8  1  0  0  0
  7 39  1  0  0  0
  8  9  1  0  0  0
  8 27  1  0  0  0
  9 10  1  0  0  0
 10 11  1  0  0  0
 10 12  1  0  0  0
 12 13  1  0  0  0
 13 14  1  0  0  0
 13 26  1  0  0  0
 14 15  1  0  0  0
 15 16  1  0  0  0
 16 17  1  0  0  0
 17 18  1  0  0  0
 18 19  1  0  0  0
 18 25  1  0  0  0
 19 20  1  0  0  0
 20 21  1  0  0  0
 20 24  1  0  0  0
 21 22  1  0  0  0
 21 23  1  0  0  0
 23 51  1  0  0  0
 23 52  1  0  0  0
 24 53  1  0  0  0
 25 54  1  0  0  0
 26 55  1  0  0  0
 27 28  1  0  0  0
 28 29  2  0  0  0
 28 30  1  0  0  0
 30 31  1  0  0  0
 31 32  1  0  0  0
 31 36  1  0  0  0
 32 33  1  0  0  0
 33 34  2  0  0  0
 33 35  1  0  0  0
 35 56  1  0  0  0
 36 37  2  0  0  0
 36 38  1  0  0  0
 38 57  1  0  0  0
 39 40  1  0  0  0
 40 41  2  0  0  0
 40 42  1  0  0  0
 42 43  1  0  0  0
 43 44  1  0  0  0
 43 48  1  0  0  0
 44 45  1  0  0  0
 45 46  2  0  0  0
 45 47  1  0  0  0
 47 58  1  0  0  0
 48 49  2  0  0  0
 48 50  1  0  0  0
 50 59  1  0  0  0
M  END
>  <AUTHOR>
    GENERATED BY OPEN BABEL 2.4.1

>  <CHROM.1>
-68.21681633,-75.05966171,74.85308565,149.48231428,28.15638699,71.27776995
-89.92301950,-74.37837622,48.53844399,83.79273269,2.56564458,-137.17153037
176.89648668,-151.50655852,67.30529837,-148.80475192,81.10527782,-39.86562273
-59.09120872,162.00437889,-171.23676256,65.52392510,-152.68751710,-22.57494946
53.76539821,54.58445384,-119.56291084,-113.17982003,-119.91142053,-0.10828271
2.16340766,27.56079140,-139.19616153,-65.49553210,-170.04122612,121.50872002
-88.56927620,-178.64836136,-6.07650392,-3.92419246,3.61310599,4.39030469
-0.52514441,0.69688613,2.35773519

>  <COMPND>
    UNNAMED

>  <MASTER>
        0    0    0    0    0    0    0    0  109    0  109    0

>  <Name>
FB1.pdb

>  <RI>
0

>  <Rbt.Current_Directory>
/home/fc/tossine/F10/p3/1_clust04

>  <Rbt.Executable>
rbdock/0.1.0

>  <Rbt.Library>
librxdock.so/0.1.0

>  <Rbt.Parameter_File>
/cluster/rxdock/data/scripts/dock.prm

>  <Rbt.Receptor>
rx_2.prm

>  <SCORE>
15.3039

>  <SCORE.INTER>
1.83307

>  <SCORE.INTER.CONST>
1

>  <SCORE.INTER.POLAR>
-0.687676

>  <SCORE.INTER.REPUL>
0.0458268

>  <SCORE.INTER.ROT>
32

>  <SCORE.INTER.VDW>
-33.458

>  <SCORE.INTER.norm>
0.0366615

>  <SCORE.INTRA>
12.4843

>  <SCORE.INTRA.DIHEDRAL>
16.312

>  <SCORE.INTRA.DIHEDRAL.0>
47.3121

>  <SCORE.INTRA.POLAR>
0.478077

>  <SCORE.INTRA.POLAR.0>
-1.47808

>  <SCORE.INTRA.REPUL>
0

>  <SCORE.INTRA.REPUL.0>
0

>  <SCORE.INTRA.VDW>
2.70282

>  <SCORE.INTRA.VDW.0>
-2.78316

>  <SCORE.INTRA.norm>
0.249686

>  <SCORE.RESTR>
0.986561

>  <SCORE.RESTR.CAVITY>
0.986561

>  <SCORE.RESTR.norm>
0.0197312

>  <SCORE.SYSTEM>
0

>  <SCORE.SYSTEM.CONST>
0

>  <SCORE.SYSTEM.DIHEDRAL>
0

>  <SCORE.SYSTEM.norm>
0

>  <SCORE.heavy>
50

>  <SCORE.norm>
0.306079

$$$$
