FB1.pdb
  RxDock  10092018133D
librxdock.so/0.1.0
 59 58  0  0  0  0  0  0  0  0999 V2000
  -10.0619    1.5664    1.3137 C   0  0  0  0  0  0
   -9.0370    1.2919    2.4117 C   0  0  0  0  0  0
   -9.7136    0.9460    3.7485 C   0  0  0  0  0  0
  -10.5073   -0.3838    3.7130 C   0  0  0  0  0  0
  -10.8838   -0.9673    5.1195 C   0  0  0  0  0  0
  -12.2005   -1.7653    4.9775 C   0  0  0  0  0  0
   -9.7422   -1.8652    5.7587 C   0  0  0  0  0  0
   -8.2315   -1.3743    5.5517 C   0  0  0  0  0  0
   -7.4802   -1.2903    4.1529 C   0  0  0  0  0  0
   -7.5257   -2.6706    3.2505 C   0  0  0  0  0  0
   -7.5147   -2.2843    1.7724 C   0  0  0  0  0  0
   -6.3711   -3.7343    3.5340 C   0  0  0  0  0  0
   -4.8625   -3.6105    2.9619 C   0  0  0  0  0  0
   -4.2683   -4.6309    1.9315 C   0  0  0  0  0  0
   -4.6295   -6.1768    2.1023 C   0  0  0  0  0  0
   -4.2276   -7.3025    1.0700 C   0  0  0  0  0  0
   -2.9103   -7.1640    0.2619 C   0  0  0  0  0  0
   -1.6694   -7.9830    0.7896 C   0  0  0  0  0  0
   -0.8962   -7.3654    1.9614 C   0  0  0  0  0  0
    0.4783   -7.9832    2.3453 C   0  0  0  0  0  0
    0.5739   -9.4588    2.8340 C   0  0  0  0  0  0
   -0.2279   -9.8136    4.0784 C   0  0  0  0  0  0
    0.2821  -10.3968    1.7334 N   0  0  0  0  0  0
    1.2546   -7.9422    1.1207 O   0  0  0  0  0  0
   -2.1310   -9.2801    1.1826 O   0  0  0  0  0  0
   -4.8237   -2.3378    2.2945 O   0  0  0  0  0  0
   -8.1689   -0.0200    6.0756 O   0  0  0  0  0  0
   -7.7723    0.1242    7.3668 C   0  0  0  0  0  0
   -7.7083    1.1683    7.9874 O   0  0  0  0  0  0
   -7.5191   -1.2419    7.9423 C   0  0  0  0  0  0
   -8.3720   -1.5245    9.1893 C   0  0  0  0  0  0
   -8.2418   -2.9737    9.6755 C   0  0  0  0  0  0
   -7.0459   -3.1384   10.5843 C   0  0  0  0  0  0
   -7.0457   -3.8500   11.5829 O   0  0  0  0  0  0
   -5.9761   -2.4301   10.1933 O   0  0  0  0  0  0
   -7.8688   -0.5600   10.2721 C   0  0  0  0  0  0
   -6.8948    0.1620   10.1218 O   0  0  0  0  0  0
   -8.5579   -0.6094   11.4204 O   0  0  0  0  0  0
  -10.0355   -2.1725    7.1798 O   0  0  0  0  0  0
  -10.9575   -3.1665    7.4624 C   0  0  0  0  0  0
  -11.5485   -3.8283    6.6192 O   0  0  0  0  0  0
  -11.1661   -3.3576    8.9705 C   0  0  0  0  0  0
  -12.6118   -3.7461    9.4105 C   0  0  0  0  0  0
  -13.7602   -2.7862    9.0497 C   0  0  0  0  0  0
  -14.9355   -2.9031    9.9769 C   0  0  0  0  0  0
  -15.3378   -2.0292   10.7325 O   0  0  0  0  0  0
  -15.5437   -4.0956    9.8867 O   0  0  0  0  0  0
  -13.0495   -5.1545    8.9896 C   0  0  0  0  0  0
  -13.0893   -6.0919    9.7619 O   0  0  0  0  0  0
  -13.4947   -5.2679    7.7207 O   0  0  0  0  0  0
   -0.2193  -11.2024    2.1052 H   0  0  0  0  0  0
    1.1653  -10.7748    1.3834 H   0  0  0  0  0  0
    1.1865   -8.8494    0.7550 H   0  0  0  0  0  0
   -1.3717   -9.7789    1.5363 H   0  0  0  0  0  0
   -4.5181   -1.6723    2.9335 H   0  0  0  0  0  0
   -5.1958   -2.4978   10.7764 H   0  0  0  0  0  0
   -9.3826   -1.1543   11.3806 H   0  0  0  0  0  0
  -15.8829   -4.3069   10.7820 H   0  0  0  0  0  0
  -14.0075   -4.4992    7.3855 H   0  0  0  0  0  0
  1  2  1  0  0  0
  2  3  1  0  0  0
  3  4  1  0  0  0
  4  5  1  0  0  0
  5  6  1  0  0  0
  5  7  1  0  0  0
  7  8  1  0  0  0
  7 39  1  0  0  0
  8  9  1  0  0  0
  8 27  1  0  0  0
  9 10  1  0  0  0
 10 11  1  0  0  0
 10 12  1  0  0  0
 12 13  1  0  0  0
 13 14  1  0  0  0
 13 26  1  0  0  0
 14 15  1  0  0  0
 15 16  1  0  0  0
 16 17  1  0  0  0
 17 18  1  0  0  0
 18 19  1  0  0  0
 18 25  1  0  0  0
 19 20  1  0  0  0
 20 21  1  0  0  0
 20 24  1  0  0  0
 21 22  1  0  0  0
 21 23  1  0  0  0
 23 51  1  0  0  0
 23 52  1  0  0  0
 24 53  1  0  0  0
 25 54  1  0  0  0
 26 55  1  0  0  0
 27 28  1  0  0  0
 28 29  2  0  0  0
 28 30  1  0  0  0
 30 31  1  0  0  0
 31 32  1  0  0  0
 31 36  1  0  0  0
 32 33  1  0  0  0
 33 34  2  0  0  0
 33 35  1  0  0  0
 35 56  1  0  0  0
 36 37  2  0  0  0
 36 38  1  0  0  0
 38 57  1  0  0  0
 39 40  1  0  0  0
 40 41  2  0  0  0
 40 42  1  0  0  0
 42 43  1  0  0  0
 43 44  1  0  0  0
 43 48  1  0  0  0
 44 45  1  0  0  0
 45 46  2  0  0  0
 45 47  1  0  0  0
 47 58  1  0  0  0
 48 49  2  0  0  0
 48 50  1  0  0  0
 50 59  1  0  0  0
M  END
>  <AUTHOR>
    GENERATED BY OPEN BABEL 2.4.1

>  <CHROM.1>
65.46800657,164.34017532,150.47571662,38.81247961,-65.26862631,78.57899312
-52.02619660,93.89360339,148.62805553,-78.86210849,-114.61503181,-39.05290397
92.08833265,173.73770245,31.78214340,99.70600727,-80.52108966,-168.66729882
-178.18854787,-62.35928021,-58.99254962,-99.24201514,-144.25852990,-177.07825744
-122.30623535,173.02397311,85.36011316,-6.11227810,141.34492814,178.35346526
-8.91989795,0.69675960,145.66794083,-58.92501998,-154.78314685,103.30646889
115.17589463,146.91960945,-36.20824015,-7.66466070,-3.49823266,5.81613535
2.99669563,-0.69749349,2.25246180

>  <COMPND>
    UNNAMED

>  <MASTER>
        0    0    0    0    0    0    0    0  109    0  109    0

>  <Name>
FB1.pdb

>  <RI>
0

>  <Rbt.Current_Directory>
/home/fc/tossine/F10/p3/1_clust04

>  <Rbt.Executable>
rbdock/0.1.0

>  <Rbt.Library>
librxdock.so/0.1.0

>  <Rbt.Parameter_File>
/cluster/rxdock/data/scripts/dock.prm

>  <Rbt.Receptor>
rx_0.prm

>  <SCORE>
37.098

>  <SCORE.INTER>
3.49365

>  <SCORE.INTER.CONST>
1

>  <SCORE.INTER.POLAR>
-2.8357

>  <SCORE.INTER.REPUL>
0.62162

>  <SCORE.INTER.ROT>
32

>  <SCORE.INTER.VDW>
-27.3731

>  <SCORE.INTER.norm>
0.0698729

>  <SCORE.INTRA>
30.322

>  <SCORE.INTRA.DIHEDRAL>
28.2349

>  <SCORE.INTRA.DIHEDRAL.0>
47.3121

>  <SCORE.INTRA.POLAR>
0.140488

>  <SCORE.INTRA.POLAR.0>
-1.47808

>  <SCORE.INTRA.REPUL>
0

>  <SCORE.INTRA.REPUL.0>
0

>  <SCORE.INTRA.VDW>
15.7269

>  <SCORE.INTRA.VDW.0>
-2.78316

>  <SCORE.INTRA.norm>
0.606441

>  <SCORE.RESTR>
3.2823

>  <SCORE.RESTR.CAVITY>
3.2823

>  <SCORE.RESTR.norm>
0.065646

>  <SCORE.SYSTEM>
0

>  <SCORE.SYSTEM.CONST>
0

>  <SCORE.SYSTEM.DIHEDRAL>
0

>  <SCORE.SYSTEM.norm>
0

>  <SCORE.heavy>
50

>  <SCORE.norm>
0.741959

$$$$
