FB1.pdb
  RxDock  10092019073D
librxdock.so/0.1.0
 59 58  0  0  0  0  0  0  0  0999 V2000
   -5.1052   -6.7803    2.3773 C   0  0  0  0  0  0
   -4.6377   -5.6272    3.2622 C   0  0  0  0  0  0
   -3.1126   -5.6415    3.4576 C   0  0  0  0  0  0
   -2.6386   -4.8139    4.6783 C   0  0  0  0  0  0
   -1.2997   -4.0254    4.4633 C   0  0  0  0  0  0
   -0.1217   -5.0103    4.6450 C   0  0  0  0  0  0
   -1.2150   -3.2923    3.0586 C   0  0  0  0  0  0
   -0.9394   -1.7144    3.0789 C   0  0  0  0  0  0
   -1.9745   -0.6110    3.5678 C   0  0  0  0  0  0
   -1.3924    0.9324    3.5918 C   0  0  0  0  0  0
   -1.0102    1.3289    2.1667 C   0  0  0  0  0  0
   -2.3587    2.0387    4.2139 C   0  0  0  0  0  0
   -3.8732    1.7487    4.7047 C   0  0  0  0  0  0
   -4.5480    2.5534    5.8680 C   0  0  0  0  0  0
   -5.5856    1.7921    6.8130 C   0  0  0  0  0  0
   -6.4572    0.5550    6.3609 C   0  0  0  0  0  0
   -7.9339    0.4497    6.8251 C   0  0  0  0  0  0
   -8.7602   -0.7773    6.2764 C   0  0  0  0  0  0
   -8.9630   -0.8350    4.7572 C   0  0  0  0  0  0
   -7.7660   -0.4582    3.8387 C   0  0  0  0  0  0
   -7.1978   -1.4873    2.8171 C   0  0  0  0  0  0
   -6.1622   -2.4684    3.3486 C   0  0  0  0  0  0
   -8.2896   -2.1971    2.1238 N   0  0  0  0  0  0
   -8.2551    0.6424    3.0304 O   0  0  0  0  0  0
   -8.0988   -1.9769    6.6928 O   0  0  0  0  0  0
   -4.6908    2.0018    3.5498 O   0  0  0  0  0  0
    0.2248   -1.5162    3.9261 O   0  0  0  0  0  0
    1.3081   -0.9257    3.3576 C   0  0  0  0  0  0
    1.3806   -0.4976    2.2214 O   0  0  0  0  0  0
    2.3815   -0.7941    4.4024 C   0  0  0  0  0  0
    2.3877    0.5897    5.0714 C   0  0  0  0  0  0
    3.6163    0.8065    5.9641 C   0  0  0  0  0  0
    4.8917    0.4684    5.2277 C   0  0  0  0  0  0
    5.2547   -0.6788    4.9913 O   0  0  0  0  0  0
    5.5941    1.5476    4.8523 O   0  0  0  0  0  0
    2.3835    1.6119    3.9263 C   0  0  0  0  0  0
    3.1719    1.5722    2.9940 O   0  0  0  0  0  0
    1.4720    2.5856    4.0575 O   0  0  0  0  0  0
   -0.2953   -4.0039    2.1379 O   0  0  0  0  0  0
   -0.8408   -4.8345    1.1731 C   0  0  0  0  0  0
   -2.0092   -4.8057    0.8094 O   0  0  0  0  0  0
    0.1898   -5.8132    0.5949 C   0  0  0  0  0  0
   -0.1886   -7.3244    0.6811 C   0  0  0  0  0  0
    0.1098   -8.0711    1.9941 C   0  0  0  0  0  0
   -0.7058   -9.3212    2.1565 C   0  0  0  0  0  0
   -1.7579   -9.4115    2.7742 O   0  0  0  0  0  0
   -0.1657  -10.3724    1.5213 O   0  0  0  0  0  0
   -1.6400   -7.6411    0.2999 C   0  0  0  0  0  0
   -2.5775   -7.4414    1.0468 O   0  0  0  0  0  0
   -1.8274   -8.0607   -0.9691 O   0  0  0  0  0  0
   -8.7253   -1.5658    1.4529 H   0  0  0  0  0  0
   -9.0246   -2.4084    2.8024 H   0  0  0  0  0  0
   -8.2977    1.4024    3.6483 H   0  0  0  0  0  0
   -7.1934   -1.9661    6.3313 H   0  0  0  0  0  0
   -5.6134    2.0789    3.8455 H   0  0  0  0  0  0
    6.5271    1.5583    5.1402 H   0  0  0  0  0  0
    1.0065    2.5966    4.9304 H   0  0  0  0  0  0
    0.4727  -10.0106    0.8711 H   0  0  0  0  0  0
   -2.7624   -8.0778   -1.2717 H   0  0  0  0  0  0
  1  2  1  0  0  0
  2  3  1  0  0  0
  3  4  1  0  0  0
  4  5  1  0  0  0
  5  6  1  0  0  0
  5  7  1  0  0  0
  7  8  1  0  0  0
  7 39  1  0  0  0
  8  9  1  0  0  0
  8 27  1  0  0  0
  9 10  1  0  0  0
 10 11  1  0  0  0
 10 12  1  0  0  0
 12 13  1  0  0  0
 13 14  1  0  0  0
 13 26  1  0  0  0
 14 15  1  0  0  0
 15 16  1  0  0  0
 16 17  1  0  0  0
 17 18  1  0  0  0
 18 19  1  0  0  0
 18 25  1  0  0  0
 19 20  1  0  0  0
 20 21  1  0  0  0
 20 24  1  0  0  0
 21 22  1  0  0  0
 21 23  1  0  0  0
 23 51  1  0  0  0
 23 52  1  0  0  0
 24 53  1  0  0  0
 25 54  1  0  0  0
 26 55  1  0  0  0
 27 28  1  0  0  0
 28 29  2  0  0  0
 28 30  1  0  0  0
 30 31  1  0  0  0
 31 32  1  0  0  0
 31 36  1  0  0  0
 32 33  1  0  0  0
 33 34  2  0  0  0
 33 35  1  0  0  0
 35 56  1  0  0  0
 36 37  2  0  0  0
 36 38  1  0  0  0
 38 57  1  0  0  0
 39 40  1  0  0  0
 40 41  2  0  0  0
 40 42  1  0  0  0
 42 43  1  0  0  0
 43 44  1  0  0  0
 43 48  1  0  0  0
 44 45  1  0  0  0
 45 46  2  0  0  0
 45 47  1  0  0  0
 47 58  1  0  0  0
 48 49  2  0  0  0
 48 50  1  0  0  0
 50 59  1  0  0  0
M  END
>  <AUTHOR>
    GENERATED BY OPEN BABEL 2.4.1

>  <CHROM.1>
-161.15682603,-142.12487836,-80.16337102,124.20006779,-70.19333397,100.31205641
175.53934318,120.41928040,61.92251489,-4.60512111,150.07802856,-146.38759830
-164.82925476,-27.77384281,-139.95848903,177.13892076,-62.84169133,40.95737622
-59.23978455,120.54567608,-85.17686168,72.49164591,73.53022977,3.14515863
-95.95210978,-170.53622784,50.43190012,-50.82673074,-74.56198057,126.23074385
8.16614763,17.61328785,124.56953987,-83.80524979,159.38741616,-77.59132425
-95.51601154,-17.87130356,-167.41166980,-2.01499469,-2.32582549,3.47421710
0.73774792,-0.07157205,-2.79571458

>  <COMPND>
    UNNAMED

>  <MASTER>
        0    0    0    0    0    0    0    0  109    0  109    0

>  <Name>
FB1.pdb

>  <RI>
0

>  <Rbt.Current_Directory>
/home/fc/tossine/F10/p3/1_clust04

>  <Rbt.Executable>
rbdock/0.1.0

>  <Rbt.Library>
librxdock.so/0.1.0

>  <Rbt.Parameter_File>
/cluster/rxdock/data/scripts/dock.prm

>  <Rbt.Receptor>
rx_1.prm

>  <SCORE>
63.2885

>  <SCORE.INTER>
31.2063

>  <SCORE.INTER.CONST>
1

>  <SCORE.INTER.POLAR>
-2.35419

>  <SCORE.INTER.REPUL>
1.82135

>  <SCORE.INTER.ROT>
32

>  <SCORE.INTER.VDW>
-7.29626

>  <SCORE.INTER.norm>
0.624125

>  <SCORE.INTRA>
28.9672

>  <SCORE.INTRA.DIHEDRAL>
51.9594

>  <SCORE.INTRA.DIHEDRAL.0>
47.3121

>  <SCORE.INTRA.POLAR>
1.47808

>  <SCORE.INTRA.POLAR.0>
-1.47808

>  <SCORE.INTRA.REPUL>
0

>  <SCORE.INTRA.REPUL.0>
0

>  <SCORE.INTRA.VDW>
-2.03794

>  <SCORE.INTRA.VDW.0>
-2.78316

>  <SCORE.INTRA.norm>
0.579344

>  <SCORE.RESTR>
3.115

>  <SCORE.RESTR.CAVITY>
3.115

>  <SCORE.RESTR.norm>
0.0623001

>  <SCORE.SYSTEM>
0

>  <SCORE.SYSTEM.CONST>
0

>  <SCORE.SYSTEM.DIHEDRAL>
0

>  <SCORE.SYSTEM.norm>
0

>  <SCORE.heavy>
50

>  <SCORE.norm>
1.26577

$$$$
