FB1.pdb
  RxDock  10072017503D
librxdock.so/0.1.0
 59 58  0  0  0  0  0  0  0  0999 V2000
  -10.4862    7.8975   -9.3626 C   0  0  0  0  0  0
   -9.6759    6.8393  -10.1077 C   0  0  0  0  0  0
   -8.5589    7.4700  -10.9555 C   0  0  0  0  0  0
   -7.5442    8.2949  -10.1249 C   0  0  0  0  0  0
   -6.3932    8.9599  -10.9577 C   0  0  0  0  0  0
   -6.5991   10.4921  -10.9332 C   0  0  0  0  0  0
   -4.9401    8.5744  -10.4499 C   0  0  0  0  0  0
   -4.3108    7.2143  -11.0159 C   0  0  0  0  0  0
   -2.9722    6.5369  -10.4891 C   0  0  0  0  0  0
   -2.7969    4.9423  -10.8740 C   0  0  0  0  0  0
   -2.7372    4.8142  -12.3952 C   0  0  0  0  0  0
   -1.5454    4.1958  -10.2248 C   0  0  0  0  0  0
   -0.1166    4.8999   -9.9393 C   0  0  0  0  0  0
    0.5418    5.9033  -10.9471 C   0  0  0  0  0  0
    0.7432    5.4346  -12.4600 C   0  0  0  0  0  0
    0.8900    3.9282  -12.9116 C   0  0  0  0  0  0
   -0.3709    3.1321  -13.3402 C   0  0  0  0  0  0
   -0.9441    2.1008  -12.2928 C   0  0  0  0  0  0
   -2.1273    1.2441  -12.7604 C   0  0  0  0  0  0
   -3.0644    0.6298  -11.6821 C   0  0  0  0  0  0
   -3.9107   -0.6386  -11.9990 C   0  0  0  0  0  0
   -4.9688   -1.0206  -10.9734 C   0  0  0  0  0  0
   -4.4930   -0.5573  -13.3521 N   0  0  0  0  0  0
   -2.1759    0.2295  -10.6078 O   0  0  0  0  0  0
    0.1223    1.2291  -11.9023 O   0  0  0  0  0  0
   -0.3114    5.6547   -8.7315 O   0  0  0  0  0  0
   -5.3269    6.1908  -10.8362 O   0  0  0  0  0  0
   -6.0379    5.8278  -11.9353 C   0  0  0  0  0  0
   -6.1600    6.4736  -12.9587 O   0  0  0  0  0  0
   -6.5725    4.4390  -11.7190 C   0  0  0  0  0  0
   -7.4604    4.3362  -10.4686 C   0  0  0  0  0  0
   -8.5147    3.2280  -10.5847 C   0  0  0  0  0  0
   -9.6334    3.6353  -11.5153 C   0  0  0  0  0  0
   -9.6206    4.6647  -12.1815 O   0  0  0  0  0  0
  -10.6483    2.7590  -11.5466 O   0  0  0  0  0  0
   -6.5107    4.0373   -9.3004 C   0  0  0  0  0  0
   -6.1620    2.9065   -8.9968 O   0  0  0  0  0  0
   -6.1314    5.1186   -8.6054 O   0  0  0  0  0  0
   -4.0045    9.7171  -10.5866 O   0  0  0  0  0  0
   -2.9446    9.8108   -9.7001 C   0  0  0  0  0  0
   -2.7513    9.0477   -8.7628 O   0  0  0  0  0  0
   -2.0188   10.9919  -10.0197 C   0  0  0  0  0  0
   -1.0147   10.7673  -11.1927 C   0  0  0  0  0  0
   -1.5391   10.0964  -12.4754 C   0  0  0  0  0  0
   -0.8324    8.8109  -12.7959 C   0  0  0  0  0  0
   -1.3730    7.7535  -13.0896 O   0  0  0  0  0  0
    0.5028    8.9336  -12.7481 O   0  0  0  0  0  0
   -0.2432   12.0219  -11.6207 C   0  0  0  0  0  0
    0.9157   11.9922  -11.9850 O   0  0  0  0  0  0
   -0.9683   13.1590  -11.6707 O   0  0  0  0  0  0
   -4.4071   -1.4647  -13.8078 H   0  0  0  0  0  0
   -3.9215    0.0758  -13.9161 H   0  0  0  0  0  0
   -2.0289    1.0496  -10.0909 H   0  0  0  0  0  0
   -0.2129    0.6292  -11.2107 H   0  0  0  0  0  0
   -0.2666    5.0385   -7.9813 H   0  0  0  0  0  0
  -11.4053    3.0180  -12.1063 H   0  0  0  0  0  0
   -5.5642    4.9224   -7.8189 H   0  0  0  0  0  0
    0.8749    8.0806  -13.0568 H   0  0  0  0  0  0
   -0.5194   13.9248  -12.0928 H   0  0  0  0  0  0
  1  2  1  0  0  0
  2  3  1  0  0  0
  3  4  1  0  0  0
  4  5  1  0  0  0
  5  6  1  0  0  0
  5  7  1  0  0  0
  7  8  1  0  0  0
  7 39  1  0  0  0
  8  9  1  0  0  0
  8 27  1  0  0  0
  9 10  1  0  0  0
 10 11  1  0  0  0
 10 12  1  0  0  0
 12 13  1  0  0  0
 13 14  1  0  0  0
 13 26  1  0  0  0
 14 15  1  0  0  0
 15 16  1  0  0  0
 16 17  1  0  0  0
 17 18  1  0  0  0
 18 19  1  0  0  0
 18 25  1  0  0  0
 19 20  1  0  0  0
 20 21  1  0  0  0
 20 24  1  0  0  0
 21 22  1  0  0  0
 21 23  1  0  0  0
 23 51  1  0  0  0
 23 52  1  0  0  0
 24 53  1  0  0  0
 25 54  1  0  0  0
 26 55  1  0  0  0
 27 28  1  0  0  0
 28 29  2  0  0  0
 28 30  1  0  0  0
 30 31  1  0  0  0
 31 32  1  0  0  0
 31 36  1  0  0  0
 32 33  1  0  0  0
 33 34  2  0  0  0
 33 35  1  0  0  0
 35 56  1  0  0  0
 36 37  2  0  0  0
 36 38  1  0  0  0
 38 57  1  0  0  0
 39 40  1  0  0  0
 40 41  2  0  0  0
 40 42  1  0  0  0
 42 43  1  0  0  0
 43 44  1  0  0  0
 43 48  1  0  0  0
 44 45  1  0  0  0
 45 46  2  0  0  0
 45 47  1  0  0  0
 47 58  1  0  0  0
 48 49  2  0  0  0
 48 50  1  0  0  0
 50 59  1  0  0  0
M  END
>  <AUTHOR>
    GENERATED BY OPEN BABEL 2.4.1

>  <CHROM.1>
59.63437017,-179.71272060,111.57211089,85.44651588,-170.81637719,151.00691586
161.11775931,102.15335037,62.55233001,-34.14332994,-40.38317060,-53.90042353
78.80227759,-25.90747787,92.60412274,-103.33172990,-175.67570544,-157.15804446
176.23719559,-156.46131527,-169.76912676,82.69840539,137.77183916,-19.70323653
58.34899318,152.06151910,-74.52225478,-86.38174011,6.48464330,177.11781619
176.42727841,-3.50578346,-78.67335435,44.06897791,-119.73447992,143.87771800
131.89768278,-174.38626027,-169.71516300,-3.86452862,5.88133509,-11.17725551
2.18450253,-0.13724714,-3.06579127

>  <COMPND>
    UNNAMED

>  <MASTER>
        0    0    0    0    0    0    0    0  109    0  109    0

>  <Name>
FB1.pdb

>  <RI>
0

>  <Rbt.Current_Directory>
/home/fc/tossine/FB1_39/p3/3_clust03

>  <Rbt.Executable>
rbdock/0.1.0

>  <Rbt.Library>
librxdock.so/0.1.0

>  <Rbt.Parameter_File>
/cluster/rxdock/data/scripts/dock.prm

>  <Rbt.Receptor>
rx_3.prm

>  <SCORE>
15.7266

>  <SCORE.INTER>
8.32803

>  <SCORE.INTER.CONST>
1

>  <SCORE.INTER.POLAR>
-1.95348

>  <SCORE.INTER.REPUL>
0.349855

>  <SCORE.INTER.ROT>
32

>  <SCORE.INTER.VDW>
-24.1794

>  <SCORE.INTER.norm>
0.166561

>  <SCORE.INTRA>
7.39854

>  <SCORE.INTRA.DIHEDRAL>
20.7818

>  <SCORE.INTRA.DIHEDRAL.0>
47.3121

>  <SCORE.INTRA.POLAR>
1.15618

>  <SCORE.INTRA.POLAR.0>
-1.47808

>  <SCORE.INTRA.REPUL>
0.0589457

>  <SCORE.INTRA.REPUL.0>
0

>  <SCORE.INTRA.VDW>
-7.2181

>  <SCORE.INTRA.VDW.0>
-2.78316

>  <SCORE.INTRA.norm>
0.147971

>  <SCORE.RESTR>
0

>  <SCORE.RESTR.CAVITY>
0

>  <SCORE.RESTR.norm>
0

>  <SCORE.SYSTEM>
0

>  <SCORE.SYSTEM.CONST>
0

>  <SCORE.SYSTEM.DIHEDRAL>
0

>  <SCORE.SYSTEM.norm>
0

>  <SCORE.heavy>
50

>  <SCORE.norm>
0.314531

$$$$
