FB1.pdb
  RxDock  10072016023D
librxdock.so/0.1.0
 59 58  0  0  0  0  0  0  0  0999 V2000
   -7.9606    8.5000  -13.5004 C   0  0  0  0  0  0
   -6.5339    8.3595  -12.9748 C   0  0  0  0  0  0
   -6.4883    7.5720  -11.6549 C   0  0  0  0  0  0
   -5.0664    7.4618  -11.0504 C   0  0  0  0  0  0
   -4.0139    6.7401  -11.9624 C   0  0  0  0  0  0
   -3.4384    7.7773  -12.9542 C   0  0  0  0  0  0
   -2.8526    6.0284  -11.1482 C   0  0  0  0  0  0
   -2.1600    4.7568  -11.8332 C   0  0  0  0  0  0
   -0.6406    4.3287  -11.6421 C   0  0  0  0  0  0
    0.4679    5.4201  -12.1909 C   0  0  0  0  0  0
    1.5722    5.5579  -11.1441 C   0  0  0  0  0  0
    1.1164    5.1083  -13.6146 C   0  0  0  0  0  0
    2.1605    6.0868  -14.3703 C   0  0  0  0  0  0
    3.3965    6.7190  -13.6430 C   0  0  0  0  0  0
    4.8577    6.2706  -14.1046 C   0  0  0  0  0  0
    6.0827    7.2558  -14.2577 C   0  0  0  0  0  0
    7.4895    6.8063  -13.7822 C   0  0  0  0  0  0
    8.5718    7.9412  -13.6090 C   0  0  0  0  0  0
    8.1467    9.1658  -12.7893 C   0  0  0  0  0  0
    7.9595    8.9971  -11.2547 C   0  0  0  0  0  0
    8.0504   10.2290  -10.3063 C   0  0  0  0  0  0
    9.3593   11.0059  -10.3282 C   0  0  0  0  0  0
    6.8990   11.1301  -10.5034 N   0  0  0  0  0  0
    6.6038    8.5047  -11.1018 O   0  0  0  0  0  0
    9.7264    7.3602  -12.9933 O   0  0  0  0  0  0
    2.7160    5.2880  -15.4285 O   0  0  0  0  0  0
   -2.9184    3.5964  -11.3963 O   0  0  0  0  0  0
   -3.5282    2.8592  -12.3607 C   0  0  0  0  0  0
   -3.9830    3.2793  -13.4076 O   0  0  0  0  0  0
   -3.4595    1.4097  -11.9664 C   0  0  0  0  0  0
   -4.6772    0.6074  -12.4524 C   0  0  0  0  0  0
   -4.7331   -0.8015  -11.8480 C   0  0  0  0  0  0
   -3.3716   -1.2403  -11.3612 C   0  0  0  0  0  0
   -2.6682   -2.0513  -11.9540 O   0  0  0  0  0  0
   -3.0003   -0.6548  -10.2131 O   0  0  0  0  0  0
   -5.9115    1.4125  -12.0231 C   0  0  0  0  0  0
   -5.9587    2.0596  -10.9880 O   0  0  0  0  0  0
   -6.9567    1.3082  -12.8553 O   0  0  0  0  0  0
   -1.8524    7.0138  -10.6700 O   0  0  0  0  0  0
   -1.1552    6.7335   -9.5066 C   0  0  0  0  0  0
   -1.1063    5.6334   -8.9720 O   0  0  0  0  0  0
   -0.4354    7.9671   -8.9458 C   0  0  0  0  0  0
   -0.0711    9.0705   -9.9871 C   0  0  0  0  0  0
   -0.8712   10.3855   -9.9574 C   0  0  0  0  0  0
   -2.1957   10.2507   -9.2632 C   0  0  0  0  0  0
   -2.5175   10.8120   -8.2249 O   0  0  0  0  0  0
   -3.0391    9.4397   -9.9199 O   0  0  0  0  0  0
    1.4156    9.4456  -10.0249 C   0  0  0  0  0  0
    1.8197   10.5671   -9.7892 O   0  0  0  0  0  0
    2.2669    8.4195  -10.2339 O   0  0  0  0  0  0
    6.0396   10.6252  -10.2912 H   0  0  0  0  0  0
    6.8308   11.3603  -11.4973 H   0  0  0  0  0  0
    6.0454    9.1774  -11.5456 H   0  0  0  0  0  0
   10.1176    6.7240  -13.6200 H   0  0  0  0  0  0
    2.9440    4.4179  -15.0605 H   0  0  0  0  0  0
   -2.1255   -0.9232   -9.8725 H   0  0  0  0  0  0
   -6.8220    0.6778  -13.6058 H   0  0  0  0  0  0
   -3.8772    9.4340   -9.4111 H   0  0  0  0  0  0
    3.2180    8.6645  -10.2724 H   0  0  0  0  0  0
  1  2  1  0  0  0
  2  3  1  0  0  0
  3  4  1  0  0  0
  4  5  1  0  0  0
  5  6  1  0  0  0
  5  7  1  0  0  0
  7  8  1  0  0  0
  7 39  1  0  0  0
  8  9  1  0  0  0
  8 27  1  0  0  0
  9 10  1  0  0  0
 10 11  1  0  0  0
 10 12  1  0  0  0
 12 13  1  0  0  0
 13 14  1  0  0  0
 13 26  1  0  0  0
 14 15  1  0  0  0
 15 16  1  0  0  0
 16 17  1  0  0  0
 17 18  1  0  0  0
 18 19  1  0  0  0
 18 25  1  0  0  0
 19 20  1  0  0  0
 20 21  1  0  0  0
 20 24  1  0  0  0
 21 22  1  0  0  0
 21 23  1  0  0  0
 23 51  1  0  0  0
 23 52  1  0  0  0
 24 53  1  0  0  0
 25 54  1  0  0  0
 26 55  1  0  0  0
 27 28  1  0  0  0
 28 29  2  0  0  0
 28 30  1  0  0  0
 30 31  1  0  0  0
 31 32  1  0  0  0
 31 36  1  0  0  0
 32 33  1  0  0  0
 33 34  2  0  0  0
 33 35  1  0  0  0
 35 56  1  0  0  0
 36 37  2  0  0  0
 36 38  1  0  0  0
 38 57  1  0  0  0
 39 40  1  0  0  0
 40 41  2  0  0  0
 40 42  1  0  0  0
 42 43  1  0  0  0
 43 44  1  0  0  0
 43 48  1  0  0  0
 44 45  1  0  0  0
 45 46  2  0  0  0
 45 47  1  0  0  0
 47 58  1  0  0  0
 48 49  2  0  0  0
 48 50  1  0  0  0
 50 59  1  0  0  0
M  END
>  <AUTHOR>
    GENERATED BY OPEN BABEL 2.4.1

>  <CHROM.1>
-177.30753857,-60.32023517,84.07373669,152.22112413,148.40614921,151.15310136
-62.98406603,118.89586593,135.64949410,176.54002368,47.39864048,113.92831209
-45.30498518,139.25515836,139.29644461,-164.41569317,49.86444127,70.59051867
66.45834435,157.38379948,-58.82129256,-56.52925068,60.77338239,-32.19222030
147.88154633,-169.94596696,-21.28683515,-34.51284489,-104.64590685,179.72158965
4.01756351,14.60147290,-25.59845052,108.02222453,-20.41755271,-119.41346498
115.09327816,-178.39299898,179.03884986,-0.03297959,6.15850003,-11.64490426
2.69367493,-0.14057423,-2.87106397

>  <COMPND>
    UNNAMED

>  <MASTER>
        0    0    0    0    0    0    0    0  109    0  109    0

>  <Name>
FB1.pdb

>  <RI>
0

>  <Rbt.Current_Directory>
/home/fc/tossine/FB1_39/p3/3_clust03

>  <Rbt.Executable>
rbdock/0.1.0

>  <Rbt.Library>
librxdock.so/0.1.0

>  <Rbt.Parameter_File>
/cluster/rxdock/data/scripts/dock.prm

>  <Rbt.Receptor>
rx_1.prm

>  <SCORE>
26.7021

>  <SCORE.INTER>
4.35901

>  <SCORE.INTER.CONST>
1

>  <SCORE.INTER.POLAR>
-2.28193

>  <SCORE.INTER.REPUL>
0.469842

>  <SCORE.INTER.ROT>
32

>  <SCORE.INTER.VDW>
-27.6316

>  <SCORE.INTER.norm>
0.0871802

>  <SCORE.INTRA>
20.2348

>  <SCORE.INTRA.DIHEDRAL>
28.247

>  <SCORE.INTRA.DIHEDRAL.0>
47.3121

>  <SCORE.INTRA.POLAR>
1.47808

>  <SCORE.INTRA.POLAR.0>
-1.47808

>  <SCORE.INTRA.REPUL>
0.0374819

>  <SCORE.INTRA.REPUL.0>
0

>  <SCORE.INTRA.VDW>
0.89844

>  <SCORE.INTRA.VDW.0>
-2.78316

>  <SCORE.INTRA.norm>
0.404697

>  <SCORE.RESTR>
2.10828

>  <SCORE.RESTR.CAVITY>
2.10828

>  <SCORE.RESTR.norm>
0.0421655

>  <SCORE.SYSTEM>
0

>  <SCORE.SYSTEM.CONST>
0

>  <SCORE.SYSTEM.DIHEDRAL>
0

>  <SCORE.SYSTEM.norm>
0

>  <SCORE.heavy>
50

>  <SCORE.norm>
0.534042

$$$$
