FB1.pdb
  RxDock  10072016023D
librxdock.so/0.1.0
 59 58  0  0  0  0  0  0  0  0999 V2000
   -2.9762   -1.7036   -8.6667 C   0  0  0  0  0  0
   -1.7578   -1.2805   -7.8496 C   0  0  0  0  0  0
   -1.8864    0.1653   -7.3424 C   0  0  0  0  0  0
   -1.4937    1.2277   -8.3992 C   0  0  0  0  0  0
   -2.4859    1.3576   -9.6071 C   0  0  0  0  0  0
   -3.9280    1.3841   -9.0501 C   0  0  0  0  0  0
   -2.2076    2.6240  -10.5219 C   0  0  0  0  0  0
   -3.1982    2.8575  -11.7589 C   0  0  0  0  0  0
   -3.3652    4.2255  -12.5519 C   0  0  0  0  0  0
   -4.7557    4.3602  -13.4293 C   0  0  0  0  0  0
   -4.4027    4.2769  -14.9134 C   0  0  0  0  0  0
   -5.9044    3.3057  -13.0927 C   0  0  0  0  0  0
   -7.3030    3.1988  -13.8995 C   0  0  0  0  0  0
   -8.4925    4.1892  -13.6540 C   0  0  0  0  0  0
   -8.4230    5.1566  -12.3857 C   0  0  0  0  0  0
   -7.4325    6.3798  -12.2541 C   0  0  0  0  0  0
   -6.5139    6.4892  -11.0085 C   0  0  0  0  0  0
   -6.1143    7.9458  -10.5524 C   0  0  0  0  0  0
   -5.5948    8.8828  -11.6499 C   0  0  0  0  0  0
   -4.2413    8.5384  -12.3338 C   0  0  0  0  0  0
   -2.9037    8.6546  -11.5447 C   0  0  0  0  0  0
   -1.8239    9.5289  -12.1667 C   0  0  0  0  0  0
   -3.1525    9.0412  -10.1429 N   0  0  0  0  0  0
   -4.3516    7.1344  -12.6809 O   0  0  0  0  0  0
   -7.2619    8.5489   -9.9451 O   0  0  0  0  0  0
   -6.9471    3.3750  -15.2811 O   0  0  0  0  0  0
   -2.8099    1.8963  -12.7775 O   0  0  0  0  0  0
   -3.5342    0.7494  -12.8516 C   0  0  0  0  0  0
   -4.7474    0.6631  -12.8446 O   0  0  0  0  0  0
   -2.5856   -0.4009  -13.0473 C   0  0  0  0  0  0
   -2.5067   -1.3172  -11.8159 C   0  0  0  0  0  0
   -3.6330   -2.3584  -11.7838 C   0  0  0  0  0  0
   -4.9786   -1.7132  -12.0212 C   0  0  0  0  0  0
   -5.6151   -1.8352  -13.0622 O   0  0  0  0  0  0
   -5.4162   -0.9910  -10.9792 O   0  0  0  0  0  0
   -1.1444   -2.0195  -11.8991 C   0  0  0  0  0  0
   -1.0216   -3.2097  -12.1455 O   0  0  0  0  0  0
   -0.0970   -1.2282  -11.6296 O   0  0  0  0  0  0
   -2.0442    3.8501   -9.7035 O   0  0  0  0  0  0
   -0.7967    4.4499   -9.6567 C   0  0  0  0  0  0
    0.1580    4.0226   -9.0207 O   0  0  0  0  0  0
   -0.7321    5.7296  -10.5008 C   0  0  0  0  0  0
    0.6452    6.4627  -10.5153 C   0  0  0  0  0  0
    1.7131    5.9760  -11.5119 C   0  0  0  0  0  0
    1.1355    5.5599  -12.8339 C   0  0  0  0  0  0
    1.1200    6.2390  -13.8513 O   0  0  0  0  0  0
    0.6324    4.3163  -12.8054 O   0  0  0  0  0  0
    0.5546    7.9871  -10.6571 C   0  0  0  0  0  0
    1.0088    8.5898  -11.6096 O   0  0  0  0  0  0
   -0.1613    8.6164   -9.7017 O   0  0  0  0  0  0
   -3.4969   10.0000  -10.1168 H   0  0  0  0  0  0
   -2.2582    9.0691   -9.6480 H   0  0  0  0  0  0
   -4.9433    7.1193  -13.4626 H   0  0  0  0  0  0
   -7.4265    8.1015   -9.0947 H   0  0  0  0  0  0
   -7.7680    3.4365  -15.7976 H   0  0  0  0  0  0
   -6.2286   -0.4744  -11.1422 H   0  0  0  0  0  0
    0.7727   -1.6983  -11.5903 H   0  0  0  0  0  0
    0.5304    4.0327  -13.7384 H   0  0  0  0  0  0
   -0.4752    8.0438   -8.9670 H   0  0  0  0  0  0
  1  2  1  0  0  0
  2  3  1  0  0  0
  3  4  1  0  0  0
  4  5  1  0  0  0
  5  6  1  0  0  0
  5  7  1  0  0  0
  7  8  1  0  0  0
  7 39  1  0  0  0
  8  9  1  0  0  0
  8 27  1  0  0  0
  9 10  1  0  0  0
 10 11  1  0  0  0
 10 12  1  0  0  0
 12 13  1  0  0  0
 13 14  1  0  0  0
 13 26  1  0  0  0
 14 15  1  0  0  0
 15 16  1  0  0  0
 16 17  1  0  0  0
 17 18  1  0  0  0
 18 19  1  0  0  0
 18 25  1  0  0  0
 19 20  1  0  0  0
 20 21  1  0  0  0
 20 24  1  0  0  0
 21 22  1  0  0  0
 21 23  1  0  0  0
 23 51  1  0  0  0
 23 52  1  0  0  0
 24 53  1  0  0  0
 25 54  1  0  0  0
 26 55  1  0  0  0
 27 28  1  0  0  0
 28 29  2  0  0  0
 28 30  1  0  0  0
 30 31  1  0  0  0
 31 32  1  0  0  0
 31 36  1  0  0  0
 32 33  1  0  0  0
 33 34  2  0  0  0
 33 35  1  0  0  0
 35 56  1  0  0  0
 36 37  2  0  0  0
 36 38  1  0  0  0
 38 57  1  0  0  0
 39 40  1  0  0  0
 40 41  2  0  0  0
 40 42  1  0  0  0
 42 43  1  0  0  0
 43 44  1  0  0  0
 43 48  1  0  0  0
 44 45  1  0  0  0
 45 46  2  0  0  0
 45 47  1  0  0  0
 47 58  1  0  0  0
 48 49  2  0  0  0
 48 50  1  0  0  0
 50 59  1  0  0  0
M  END
>  <AUTHOR>
    GENERATED BY OPEN BABEL 2.4.1

>  <CHROM.1>
-81.88044538,69.49200300,45.54206961,-178.43582310,162.41519159,112.38384293
-160.89568008,98.18633111,-108.93315954,-175.74020251,-78.54181049,-11.58316331
-172.61894968,70.71653522,-126.60798932,-150.51928438,-48.73256528,-65.99157682
69.90059766,-69.38091779,-125.12624248,75.46591583,-68.47728300,46.76139544
110.78212964,83.66491456,-49.05068968,-109.91004576,107.31821796,172.82633379
173.95726221,-75.04513160,-179.41460160,84.05970004,37.45147984,-116.80807864
99.71502244,-163.41180494,5.77367406,-3.07927555,3.61318934,-11.52728001
-1.58388328,-0.29989235,-0.03189583

>  <COMPND>
    UNNAMED

>  <MASTER>
        0    0    0    0    0    0    0    0  109    0  109    0

>  <Name>
FB1.pdb

>  <RI>
0

>  <Rbt.Current_Directory>
/home/fc/tossine/FB1_39/p3/3_clust03

>  <Rbt.Executable>
rbdock/0.1.0

>  <Rbt.Library>
librxdock.so/0.1.0

>  <Rbt.Parameter_File>
/cluster/rxdock/data/scripts/dock.prm

>  <Rbt.Receptor>
rx_1.prm

>  <SCORE>
38.4158

>  <SCORE.INTER>
11.1908

>  <SCORE.INTER.CONST>
1

>  <SCORE.INTER.POLAR>
-3.23188

>  <SCORE.INTER.REPUL>
1.07315

>  <SCORE.INTER.ROT>
32

>  <SCORE.INTER.VDW>
-20.5866

>  <SCORE.INTER.norm>
0.223816

>  <SCORE.INTRA>
25.4674

>  <SCORE.INTRA.DIHEDRAL>
49.4443

>  <SCORE.INTRA.DIHEDRAL.0>
47.3121

>  <SCORE.INTRA.POLAR>
0.541865

>  <SCORE.INTRA.POLAR.0>
-1.47808

>  <SCORE.INTRA.REPUL>
0.030861

>  <SCORE.INTRA.REPUL.0>
0

>  <SCORE.INTRA.VDW>
-1.25144

>  <SCORE.INTRA.VDW.0>
-2.78316

>  <SCORE.INTRA.norm>
0.509347

>  <SCORE.RESTR>
1.7576

>  <SCORE.RESTR.CAVITY>
1.7576

>  <SCORE.RESTR.norm>
0.0351519

>  <SCORE.SYSTEM>
0

>  <SCORE.SYSTEM.CONST>
0

>  <SCORE.SYSTEM.DIHEDRAL>
0

>  <SCORE.SYSTEM.norm>
0

>  <SCORE.heavy>
50

>  <SCORE.norm>
0.768315

$$$$
