FB1.pdb
  RxDock  10072017063D
librxdock.so/0.1.0
 59 58  0  0  0  0  0  0  0  0999 V2000
    2.0645    5.3710  -13.7600 C   0  0  0  0  0  0
    2.0213    5.5319  -12.2422 C   0  0  0  0  0  0
    0.7806    4.8580  -11.6333 C   0  0  0  0  0  0
    0.2102    5.6094  -10.4045 C   0  0  0  0  0  0
   -1.2706    6.1029  -10.5598 C   0  0  0  0  0  0
   -1.5252    7.2115   -9.5125 C   0  0  0  0  0  0
   -1.6183    6.6125  -12.0217 C   0  0  0  0  0  0
   -2.9300    6.0027  -12.7100 C   0  0  0  0  0  0
   -3.0482    4.5376  -13.3163 C   0  0  0  0  0  0
   -2.3151    3.3535  -12.4322 C   0  0  0  0  0  0
   -2.8616    3.4038  -11.0064 C   0  0  0  0  0  0
   -2.4434    1.8690  -13.0021 C   0  0  0  0  0  0
   -1.2502    0.7765  -12.9655 C   0  0  0  0  0  0
   -0.4202    0.4820  -11.6692 C   0  0  0  0  0  0
   -1.1742   -0.1588  -10.4163 C   0  0  0  0  0  0
   -1.9382   -1.5407  -10.4505 C   0  0  0  0  0  0
   -2.6236   -2.0676   -9.1621 C   0  0  0  0  0  0
   -3.6325   -1.0869   -8.4481 C   0  0  0  0  0  0
   -4.9862   -0.8830   -9.1397 C   0  0  0  0  0  0
   -5.0199   -0.0839  -10.4733 C   0  0  0  0  0  0
   -6.2033    0.8776  -10.7901 C   0  0  0  0  0  0
   -6.1354    1.6216  -12.1164 C   0  0  0  0  0  0
   -7.4975    0.1855  -10.6395 N   0  0  0  0  0  0
   -3.8474    0.7683  -10.4210 O   0  0  0  0  0  0
   -3.8675   -1.5813   -7.1252 O   0  0  0  0  0  0
   -1.8815   -0.4714  -13.2983 O   0  0  0  0  0  0
   -3.9804    6.0629  -11.7072 O   0  0  0  0  0  0
   -4.6565    7.2355  -11.5918 C   0  0  0  0  0  0
   -4.5302    8.2120  -12.3058 O   0  0  0  0  0  0
   -5.6695    7.0943  -10.4893 C   0  0  0  0  0  0
   -6.6385    5.9245  -10.7243 C   0  0  0  0  0  0
   -5.9641    4.5576  -10.5509 C   0  0  0  0  0  0
   -6.1204    4.0481   -9.1370 C   0  0  0  0  0  0
   -6.8019    3.0732   -8.8387 O   0  0  0  0  0  0
   -5.4381    4.7653   -8.2321 O   0  0  0  0  0  0
   -7.7603    6.0918   -9.6901 C   0  0  0  0  0  0
   -7.7177    6.9133   -8.7870 O   0  0  0  0  0  0
   -8.7737    5.2259   -9.8285 O   0  0  0  0  0  0
   -1.5928    8.0938  -12.0925 O   0  0  0  0  0  0
   -0.3643    8.7292  -12.1640 C   0  0  0  0  0  0
    0.6848    8.1830  -12.4792 O   0  0  0  0  0  0
   -0.4547   10.2174  -11.8013 C   0  0  0  0  0  0
   -1.3618   10.5629  -10.5798 C   0  0  0  0  0  0
   -1.1723   11.9326   -9.9026 C   0  0  0  0  0  0
   -1.0040   13.0548  -10.8858 C   0  0  0  0  0  0
    0.0167   13.7072  -11.0562 O   0  0  0  0  0  0
   -2.1142   13.2769  -11.6059 O   0  0  0  0  0  0
   -2.8644   10.3860  -10.8311 C   0  0  0  0  0  0
   -3.3855   10.6136  -11.9050 O   0  0  0  0  0  0
   -3.5646    9.8548   -9.8069 O   0  0  0  0  0  0
   -7.5061   -0.3175   -9.7532 H   0  0  0  0  0  0
   -7.5646   -0.5413  -11.3555 H   0  0  0  0  0  0
   -3.9937    1.3413   -9.6389 H   0  0  0  0  0  0
   -4.1198   -2.5206   -7.1918 H   0  0  0  0  0  0
   -2.1483   -0.4339  -14.2321 H   0  0  0  0  0  0
   -4.7621    5.3660   -8.6004 H   0  0  0  0  0  0
   -9.2313    4.9917   -8.9832 H   0  0  0  0  0  0
   -1.8640   13.8941  -12.3255 H   0  0  0  0  0  0
   -3.0327    9.6097   -9.0175 H   0  0  0  0  0  0
  1  2  1  0  0  0
  2  3  1  0  0  0
  3  4  1  0  0  0
  4  5  1  0  0  0
  5  6  1  0  0  0
  5  7  1  0  0  0
  7  8  1  0  0  0
  7 39  1  0  0  0
  8  9  1  0  0  0
  8 27  1  0  0  0
  9 10  1  0  0  0
 10 11  1  0  0  0
 10 12  1  0  0  0
 12 13  1  0  0  0
 13 14  1  0  0  0
 13 26  1  0  0  0
 14 15  1  0  0  0
 15 16  1  0  0  0
 16 17  1  0  0  0
 17 18  1  0  0  0
 18 19  1  0  0  0
 18 25  1  0  0  0
 19 20  1  0  0  0
 20 21  1  0  0  0
 20 24  1  0  0  0
 21 22  1  0  0  0
 21 23  1  0  0  0
 23 51  1  0  0  0
 23 52  1  0  0  0
 24 53  1  0  0  0
 25 54  1  0  0  0
 26 55  1  0  0  0
 27 28  1  0  0  0
 28 29  2  0  0  0
 28 30  1  0  0  0
 30 31  1  0  0  0
 31 32  1  0  0  0
 31 36  1  0  0  0
 32 33  1  0  0  0
 33 34  2  0  0  0
 33 35  1  0  0  0
 35 56  1  0  0  0
 36 37  2  0  0  0
 36 38  1  0  0  0
 38 57  1  0  0  0
 39 40  1  0  0  0
 40 41  2  0  0  0
 40 42  1  0  0  0
 42 43  1  0  0  0
 43 44  1  0  0  0
 43 48  1  0  0  0
 44 45  1  0  0  0
 45 46  2  0  0  0
 45 47  1  0  0  0
 47 58  1  0  0  0
 48 49  2  0  0  0
 48 50  1  0  0  0
 50 59  1  0  0  0
M  END
>  <AUTHOR>
    GENERATED BY OPEN BABEL 2.4.1

>  <CHROM.1>
-145.53158229,120.05908349,-160.85072315,129.04968549,-74.97413811,77.95202948
40.29461892,84.32859229,54.85929447,140.96266918,48.40633584,65.02443177
68.97136003,58.83462485,179.43106022,53.33659456,73.49874366,-70.39369810
-51.66077893,-142.74370524,179.49355793,-61.66626188,47.88905614,5.29528155
-56.94625754,71.04480110,92.68494550,-8.45222688,112.07636559,-14.81209110
149.86020424,17.63517749,41.93648116,161.82340390,42.84305729,-34.79502920
-112.66079330,-169.37325288,-1.91192487,-3.12496454,5.09727048,-10.91568058
-1.32133465,-0.32462354,3.12186626

>  <COMPND>
    UNNAMED

>  <MASTER>
        0    0    0    0    0    0    0    0  109    0  109    0

>  <Name>
FB1.pdb

>  <RI>
0

>  <Rbt.Current_Directory>
/home/fc/tossine/FB1_39/p3/3_clust03

>  <Rbt.Executable>
rbdock/0.1.0

>  <Rbt.Library>
librxdock.so/0.1.0

>  <Rbt.Parameter_File>
/cluster/rxdock/data/scripts/dock.prm

>  <Rbt.Receptor>
rx_2.prm

>  <SCORE>
13.0678

>  <SCORE.INTER>
5.46954

>  <SCORE.INTER.CONST>
1

>  <SCORE.INTER.POLAR>
-1.55092

>  <SCORE.INTER.REPUL>
0.232102

>  <SCORE.INTER.ROT>
32

>  <SCORE.INTER.VDW>
-27.8178

>  <SCORE.INTER.norm>
0.109391

>  <SCORE.INTRA>
6.02619

>  <SCORE.INTRA.DIHEDRAL>
12.0587

>  <SCORE.INTRA.DIHEDRAL.0>
47.3121

>  <SCORE.INTRA.POLAR>
1.47808

>  <SCORE.INTRA.POLAR.0>
-1.47808

>  <SCORE.INTRA.REPUL>
0

>  <SCORE.INTRA.REPUL.0>
0

>  <SCORE.INTRA.VDW>
-5.02863

>  <SCORE.INTRA.VDW.0>
-2.78316

>  <SCORE.INTRA.norm>
0.120524

>  <SCORE.RESTR>
1.57203

>  <SCORE.RESTR.CAVITY>
1.57203

>  <SCORE.RESTR.norm>
0.0314406

>  <SCORE.SYSTEM>
0

>  <SCORE.SYSTEM.CONST>
0

>  <SCORE.SYSTEM.DIHEDRAL>
0

>  <SCORE.SYSTEM.norm>
0

>  <SCORE.heavy>
50

>  <SCORE.norm>
0.261355

$$$$
