FB1.pdb
  RxDock  10072018213D
librxdock.so/0.1.0
 59 58  0  0  0  0  0  0  0  0999 V2000
   -9.5443    6.2175   -9.2670 C   0  0  0  0  0  0
   -8.5412    6.8295  -10.2420 C   0  0  0  0  0  0
   -7.6065    7.8308   -9.5435 C   0  0  0  0  0  0
   -6.6871    8.6035  -10.5220 C   0  0  0  0  0  0
   -5.9674    7.7144  -11.5952 C   0  0  0  0  0  0
   -6.3613    8.2321  -12.9979 C   0  0  0  0  0  0
   -4.3900    7.6725  -11.4281 C   0  0  0  0  0  0
   -3.5521    6.9985  -12.6155 C   0  0  0  0  0  0
   -1.9659    6.9911  -12.7265 C   0  0  0  0  0  0
   -1.2387    5.5859  -12.2597 C   0  0  0  0  0  0
   -0.0573    5.3185  -13.1909 C   0  0  0  0  0  0
   -0.7502    5.5172  -10.7427 C   0  0  0  0  0  0
   -0.6209    4.1467   -9.8920 C   0  0  0  0  0  0
   -0.1808    2.7914  -10.5442 C   0  0  0  0  0  0
   -0.6281    1.4308   -9.8385 C   0  0  0  0  0  0
   -0.3711   -0.0075  -10.4383 C   0  0  0  0  0  0
   -0.4780   -1.2507   -9.5160 C   0  0  0  0  0  0
   -1.8892   -1.5293   -8.8679 C   0  0  0  0  0  0
   -2.8981   -2.2895   -9.7378 C   0  0  0  0  0  0
   -2.3947   -3.5169  -10.5491 C   0  0  0  0  0  0
   -3.4044   -4.5554  -11.1213 C   0  0  0  0  0  0
   -4.5525   -3.9981  -11.9511 C   0  0  0  0  0  0
   -2.6995   -5.6277  -11.8492 N   0  0  0  0  0  0
   -1.7432   -2.9462  -11.7127 O   0  0  0  0  0  0
   -1.6822   -2.2689   -7.6597 O   0  0  0  0  0  0
    0.3760    4.4240   -8.8939 O   0  0  0  0  0  0
   -3.9200    5.5925  -12.6253 O   0  0  0  0  0  0
   -3.9072    4.9432  -11.4322 C   0  0  0  0  0  0
   -3.3809    5.3323  -10.4070 O   0  0  0  0  0  0
   -4.7438    3.6999  -11.5579 C   0  0  0  0  0  0
   -6.1893    3.9102  -11.0796 C   0  0  0  0  0  0
   -7.1622    2.8859  -11.6778 C   0  0  0  0  0  0
   -8.5791    3.4110  -11.6703 C   0  0  0  0  0  0
   -9.3337    3.3130  -10.7087 O   0  0  0  0  0  0
   -8.9368    4.0000  -12.8210 O   0  0  0  0  0  0
   -6.1527    3.7698   -9.5516 C   0  0  0  0  0  0
   -6.5138    2.7604   -8.9657 O   0  0  0  0  0  0
   -5.7367    4.8675   -8.9051 O   0  0  0  0  0  0
   -3.8550    9.0059  -11.0596 O   0  0  0  0  0  0
   -2.6784    9.0657  -10.3315 C   0  0  0  0  0  0
   -2.1151    8.0976   -9.8377 O   0  0  0  0  0  0
   -2.1421   10.4977  -10.2053 C   0  0  0  0  0  0
   -0.6499   10.6261   -9.7678 C   0  0  0  0  0  0
    0.4129    9.8786  -10.5936 C   0  0  0  0  0  0
    0.8998    8.6250   -9.9257 C   0  0  0  0  0  0
    0.4958    8.1814   -8.8596 O   0  0  0  0  0  0
    1.8452    7.9965  -10.6409 O   0  0  0  0  0  0
   -0.1578   12.0685   -9.5957 C   0  0  0  0  0  0
   -0.0034   12.5881   -8.5081 O   0  0  0  0  0  0
    0.1993   12.6986  -10.7344 O   0  0  0  0  0  0
   -1.8043   -5.8064  -11.3962 H   0  0  0  0  0  0
   -2.4590   -5.2855  -12.7822 H   0  0  0  0  0  0
   -1.3200   -3.7104  -12.1580 H   0  0  0  0  0  0
   -1.1847   -1.7049   -7.0393 H   0  0  0  0  0  0
   -0.0593    4.8756   -8.1515 H   0  0  0  0  0  0
   -8.2930    3.9148  -13.5502 H   0  0  0  0  0  0
   -5.4809    5.6189   -9.4956 H   0  0  0  0  0  0
    1.8846    8.4458  -11.5115 H   0  0  0  0  0  0
   -0.1392   12.2921  -11.5629 H   0  0  0  0  0  0
  1  2  1  0  0  0
  2  3  1  0  0  0
  3  4  1  0  0  0
  4  5  1  0  0  0
  5  6  1  0  0  0
  5  7  1  0  0  0
  7  8  1  0  0  0
  7 39  1  0  0  0
  8  9  1  0  0  0
  8 27  1  0  0  0
  9 10  1  0  0  0
 10 11  1  0  0  0
 10 12  1  0  0  0
 12 13  1  0  0  0
 13 14  1  0  0  0
 13 26  1  0  0  0
 14 15  1  0  0  0
 15 16  1  0  0  0
 16 17  1  0  0  0
 17 18  1  0  0  0
 18 19  1  0  0  0
 18 25  1  0  0  0
 19 20  1  0  0  0
 20 21  1  0  0  0
 20 24  1  0  0  0
 21 22  1  0  0  0
 21 23  1  0  0  0
 23 51  1  0  0  0
 23 52  1  0  0  0
 24 53  1  0  0  0
 25 54  1  0  0  0
 26 55  1  0  0  0
 27 28  1  0  0  0
 28 29  2  0  0  0
 28 30  1  0  0  0
 30 31  1  0  0  0
 31 32  1  0  0  0
 31 36  1  0  0  0
 32 33  1  0  0  0
 33 34  2  0  0  0
 33 35  1  0  0  0
 35 56  1  0  0  0
 36 37  2  0  0  0
 36 38  1  0  0  0
 38 57  1  0  0  0
 39 40  1  0  0  0
 40 41  2  0  0  0
 40 42  1  0  0  0
 42 43  1  0  0  0
 43 44  1  0  0  0
 43 48  1  0  0  0
 44 45  1  0  0  0
 45 46  2  0  0  0
 45 47  1  0  0  0
 47 58  1  0  0  0
 48 49  2  0  0  0
 48 50  1  0  0  0
 50 59  1  0  0  0
M  END
>  <AUTHOR>
    GENERATED BY OPEN BABEL 2.4.1

>  <CHROM.1>
-172.98549843,-46.81098272,122.02018505,-169.93435976,173.04890061,152.41659992
100.52001501,-48.03890784,142.36375490,152.33251978,34.89262554,-155.71133086
83.29469592,174.49556094,162.88747991,62.35757248,83.35867930,43.28889702
64.19715415,162.80489572,51.99998941,172.43169541,33.91000345,-15.19083147
-95.07593958,157.90821586,-156.94832489,-101.75643935,-85.44676857,7.66676955
-1.72502017,-8.44941713,-163.37674489,54.66162398,-102.98733480,103.77092049
2.19386553,-8.99819833,17.85779387,-3.22679838,4.69656143,-10.61314264,1.46456621
-0.10488782,0.00492071

>  <COMPND>
    UNNAMED

>  <MASTER>
        0    0    0    0    0    0    0    0  109    0  109    0

>  <Name>
FB1.pdb

>  <RI>
0

>  <Rbt.Current_Directory>
/home/fc/tossine/FB1_39/p3/3_clust03

>  <Rbt.Executable>
rbdock/0.1.0

>  <Rbt.Library>
librxdock.so/0.1.0

>  <Rbt.Parameter_File>
/cluster/rxdock/data/scripts/dock.prm

>  <Rbt.Receptor>
rx_4.prm

>  <SCORE>
15.49

>  <SCORE.INTER>
5.89376

>  <SCORE.INTER.CONST>
1

>  <SCORE.INTER.POLAR>
-2.30222

>  <SCORE.INTER.REPUL>
0.591377

>  <SCORE.INTER.ROT>
32

>  <SCORE.INTER.VDW>
-26.6356

>  <SCORE.INTER.norm>
0.117875

>  <SCORE.INTRA>
9.17814

>  <SCORE.INTRA.DIHEDRAL>
12.3556

>  <SCORE.INTRA.DIHEDRAL.0>
47.3121

>  <SCORE.INTRA.POLAR>
1.47808

>  <SCORE.INTRA.POLAR.0>
-1.47808

>  <SCORE.INTRA.REPUL>
0

>  <SCORE.INTRA.REPUL.0>
0

>  <SCORE.INTRA.VDW>
-2.02514

>  <SCORE.INTRA.VDW.0>
-2.78316

>  <SCORE.INTRA.norm>
0.183563

>  <SCORE.RESTR>
0.418137

>  <SCORE.RESTR.CAVITY>
0.418137

>  <SCORE.RESTR.norm>
0.00836274

>  <SCORE.SYSTEM>
0

>  <SCORE.SYSTEM.CONST>
0

>  <SCORE.SYSTEM.DIHEDRAL>
0

>  <SCORE.SYSTEM.norm>
0

>  <SCORE.heavy>
50

>  <SCORE.norm>
0.309801

$$$$
