FB1.pdb
  RxDock  10072018263D
librxdock.so/0.1.0
 59 58  0  0  0  0  0  0  0  0999 V2000
    4.4965    6.1865  -14.3852 C   0  0  0  0  0  0
    3.0476    6.6333  -14.5651 C   0  0  0  0  0  0
    2.0575    5.5757  -14.0500 C   0  0  0  0  0  0
    0.8731    6.1754  -13.2518 C   0  0  0  0  0  0
   -0.1772    5.1288  -12.7399 C   0  0  0  0  0  0
    0.4981    4.2516  -11.6604 C   0  0  0  0  0  0
   -1.5090    5.7882  -12.1837 C   0  0  0  0  0  0
   -2.7100    4.7954  -11.8121 C   0  0  0  0  0  0
   -2.8250    3.9635  -10.4620 C   0  0  0  0  0  0
   -3.1814    2.3643  -10.6540 C   0  0  0  0  0  0
   -4.4594    2.2483  -11.4830 C   0  0  0  0  0  0
   -2.0379    1.4623  -11.3049 C   0  0  0  0  0  0
   -0.5752    1.2388  -10.6498 C   0  0  0  0  0  0
   -0.3156    0.1948   -9.5102 C   0  0  0  0  0  0
   -0.3775   -1.3579   -9.8770 C   0  0  0  0  0  0
   -1.5690   -2.0397  -10.6579 C   0  0  0  0  0  0
   -1.6721   -3.5874  -10.6957 C   0  0  0  0  0  0
   -1.6663   -4.3291   -9.3031 C   0  0  0  0  0  0
   -2.3351   -3.5904   -8.1372 C   0  0  0  0  0  0
   -2.3263   -4.2639   -6.7355 C   0  0  0  0  0  0
   -2.8079   -3.4809   -5.4783 C   0  0  0  0  0  0
   -1.7509   -2.6753   -4.7359 C   0  0  0  0  0  0
   -3.9807   -2.6447   -5.7973 N   0  0  0  0  0  0
   -3.2453   -5.3794   -6.8579 O   0  0  0  0  0  0
   -2.3163   -5.5933   -9.4733 O   0  0  0  0  0  0
    0.2584    0.8167  -11.7424 O   0  0  0  0  0  0
   -3.9234    5.5947  -11.8467 O   0  0  0  0  0  0
   -4.5407    5.7272  -13.0495 C   0  0  0  0  0  0
   -4.2031    5.2017  -14.0932 O   0  0  0  0  0  0
   -5.7807    6.5564  -12.8593 C   0  0  0  0  0  0
   -6.7185    5.9787  -11.7873 C   0  0  0  0  0  0
   -6.2272    6.2607  -10.3616 C   0  0  0  0  0  0
   -6.9473    5.3933   -9.3554 C   0  0  0  0  0  0
   -6.4446    4.4076   -8.8268 O   0  0  0  0  0  0
   -8.1958    5.8058   -9.0908 O   0  0  0  0  0  0
   -8.0816    6.6468  -12.0149 C   0  0  0  0  0  0
   -9.0960    6.0194  -12.2790 O   0  0  0  0  0  0
   -8.0595    7.9851  -11.9488 O   0  0  0  0  0  0
   -1.2166    6.7403  -11.0847 O   0  0  0  0  0  0
   -2.0389    7.8442  -10.9327 C   0  0  0  0  0  0
   -3.0439    8.0607  -11.5973 O   0  0  0  0  0  0
   -1.5524    8.7865   -9.8238 C   0  0  0  0  0  0
   -0.3035    9.6545  -10.1721 C   0  0  0  0  0  0
    0.5908    9.1995  -11.3399 C   0  0  0  0  0  0
    1.7010    8.2860  -10.9070 C   0  0  0  0  0  0
    2.8954    8.4786  -11.0889 O   0  0  0  0  0  0
    1.2499    7.2015  -10.2584 O   0  0  0  0  0  0
   -0.6011   11.1442  -10.3835 C   0  0  0  0  0  0
   -1.6526   11.5493  -10.8384 O   0  0  0  0  0  0
    0.3440   11.9939   -9.9298 O   0  0  0  0  0  0
   -3.7281   -1.6626   -5.6963 H   0  0  0  0  0  0
   -4.6995   -2.8061   -5.0883 H   0  0  0  0  0  0
   -4.1239   -4.9626   -6.9834 H   0  0  0  0  0  0
   -1.8145   -6.1070  -10.1327 H   0  0  0  0  0  0
   -0.1535    0.0371  -12.1511 H   0  0  0  0  0  0
   -8.4454    6.6610   -9.4904 H   0  0  0  0  0  0
   -7.1778    8.3697  -11.7174 H   0  0  0  0  0  0
    0.2888    7.1428  -10.4431 H   0  0  0  0  0  0
    1.0633   11.5794   -9.4035 H   0  0  0  0  0  0
  1  2  1  0  0  0
  2  3  1  0  0  0
  3  4  1  0  0  0
  4  5  1  0  0  0
  5  6  1  0  0  0
  5  7  1  0  0  0
  7  8  1  0  0  0
  7 39  1  0  0  0
  8  9  1  0  0  0
  8 27  1  0  0  0
  9 10  1  0  0  0
 10 11  1  0  0  0
 10 12  1  0  0  0
 12 13  1  0  0  0
 13 14  1  0  0  0
 13 26  1  0  0  0
 14 15  1  0  0  0
 15 16  1  0  0  0
 16 17  1  0  0  0
 17 18  1  0  0  0
 18 19  1  0  0  0
 18 25  1  0  0  0
 19 20  1  0  0  0
 20 21  1  0  0  0
 20 24  1  0  0  0
 21 22  1  0  0  0
 21 23  1  0  0  0
 23 51  1  0  0  0
 23 52  1  0  0  0
 24 53  1  0  0  0
 25 54  1  0  0  0
 26 55  1  0  0  0
 27 28  1  0  0  0
 28 29  2  0  0  0
 28 30  1  0  0  0
 30 31  1  0  0  0
 31 32  1  0  0  0
 31 36  1  0  0  0
 32 33  1  0  0  0
 33 34  2  0  0  0
 33 35  1  0  0  0
 35 56  1  0  0  0
 36 37  2  0  0  0
 36 38  1  0  0  0
 38 57  1  0  0  0
 39 40  1  0  0  0
 40 41  2  0  0  0
 40 42  1  0  0  0
 42 43  1  0  0  0
 43 44  1  0  0  0
 43 48  1  0  0  0
 44 45  1  0  0  0
 45 46  2  0  0  0
 45 47  1  0  0  0
 47 58  1  0  0  0
 48 49  2  0  0  0
 48 50  1  0  0  0
 50 59  1  0  0  0
M  END
>  <AUTHOR>
    GENERATED BY OPEN BABEL 2.4.1

>  <CHROM.1>
137.73947029,178.57671350,67.72735471,172.48597495,80.54141448,148.09406860
-131.60348461,86.50758273,-54.79121632,61.40207551,81.60728006,70.50657916
-55.37726516,-50.40750126,-167.01048692,54.07569959,33.59082750,-178.57168250
60.60900622,171.35442175,-89.11980450,-66.83541783,-114.85592097,2.84141517
-55.30500057,76.94665982,-165.15192164,119.67643204,103.74049324,-6.97157434
-2.90373398,4.22145845,74.58203286,-19.54623482,-90.38797501,-31.73052637
-122.83847886,15.61108602,-8.02863397,-2.26651064,3.95267380,-10.66225766
-1.49078923,-0.13063340,2.86814457

>  <COMPND>
    UNNAMED

>  <MASTER>
        0    0    0    0    0    0    0    0  109    0  109    0

>  <Name>
FB1.pdb

>  <RI>
0

>  <Rbt.Current_Directory>
/home/fc/tossine/FB1_39/p3/3_clust03

>  <Rbt.Executable>
rbdock/0.1.0

>  <Rbt.Library>
librxdock.so/0.1.0

>  <Rbt.Parameter_File>
/cluster/rxdock/data/scripts/dock.prm

>  <Rbt.Receptor>
rx_4.prm

>  <SCORE>
8.73925

>  <SCORE.INTER>
6.50262

>  <SCORE.INTER.CONST>
1

>  <SCORE.INTER.POLAR>
-2.06634

>  <SCORE.INTER.REPUL>
0.141155

>  <SCORE.INTER.ROT>
32

>  <SCORE.INTER.VDW>
-24.5776

>  <SCORE.INTER.norm>
0.130052

>  <SCORE.INTRA>
1.73578

>  <SCORE.INTRA.DIHEDRAL>
2.18241

>  <SCORE.INTRA.DIHEDRAL.0>
47.3121

>  <SCORE.INTRA.POLAR>
0.478077

>  <SCORE.INTRA.POLAR.0>
-1.47808

>  <SCORE.INTRA.REPUL>
0

>  <SCORE.INTRA.REPUL.0>
0

>  <SCORE.INTRA.VDW>
-0.980889

>  <SCORE.INTRA.VDW.0>
-2.78316

>  <SCORE.INTRA.norm>
0.0347156

>  <SCORE.RESTR>
0.500852

>  <SCORE.RESTR.CAVITY>
0.500852

>  <SCORE.RESTR.norm>
0.010017

>  <SCORE.SYSTEM>
0

>  <SCORE.SYSTEM.CONST>
0

>  <SCORE.SYSTEM.DIHEDRAL>
0

>  <SCORE.SYSTEM.norm>
0

>  <SCORE.heavy>
50

>  <SCORE.norm>
0.174785

$$$$
