FB1.pdb
  RxDock  10072015133D
librxdock.so/0.1.0
 59 58  0  0  0  0  0  0  0  0999 V2000
   -8.9965   -1.1122   -6.9384 C   0  0  0  0  0  0
   -7.6889   -1.0588   -7.7250 C   0  0  0  0  0  0
   -7.8687   -0.3577   -9.0816 C   0  0  0  0  0  0
   -6.6959   -0.6025  -10.0636 C   0  0  0  0  0  0
   -6.9931   -0.2241  -11.5565 C   0  0  0  0  0  0
   -8.0636   -1.1982  -12.1004 C   0  0  0  0  0  0
   -7.4478    1.2839  -11.7492 C   0  0  0  0  0  0
   -6.2875    2.3790  -11.8928 C   0  0  0  0  0  0
   -6.5196    3.9471  -12.0163 C   0  0  0  0  0  0
   -5.2591    4.7920  -12.6633 C   0  0  0  0  0  0
   -5.5759    6.2836  -12.5697 C   0  0  0  0  0  0
   -3.8233    4.5092  -12.0282 C   0  0  0  0  0  0
   -2.4295    5.0210  -12.6714 C   0  0  0  0  0  0
   -1.9459    6.5072  -12.5547 C   0  0  0  0  0  0
   -2.8836    7.6572  -13.1439 C   0  0  0  0  0  0
   -3.5487    8.7948  -12.2732 C   0  0  0  0  0  0
   -2.6574    9.6815  -11.3640 C   0  0  0  0  0  0
   -1.2071   10.0031  -11.8953 C   0  0  0  0  0  0
   -0.1419    8.9256  -11.6573 C   0  0  0  0  0  0
    1.1157    9.3033  -10.8242 C   0  0  0  0  0  0
    0.9745    9.7664   -9.3440 C   0  0  0  0  0  0
    2.1709    9.5123   -8.4376 C   0  0  0  0  0  0
    0.5495   11.1774   -9.2731 N   0  0  0  0  0  0
    1.8963    8.0823  -10.7627 O   0  0  0  0  0  0
   -1.2971   10.2506  -13.3026 O   0  0  0  0  0  0
   -1.4129    4.2431  -12.0172 O   0  0  0  0  0  0
   -5.4422    2.2316  -10.7197 O   0  0  0  0  0  0
   -4.4722    1.2822  -10.7737 C   0  0  0  0  0  0
   -4.2160    0.5687  -11.7248 O   0  0  0  0  0  0
   -3.6916    1.3256   -9.4891 C   0  0  0  0  0  0
   -2.6522    0.1975   -9.3914 C   0  0  0  0  0  0
   -1.2843    0.6976   -8.9097 C   0  0  0  0  0  0
   -0.7111    1.7202   -9.8631 C   0  0  0  0  0  0
   -0.0198    1.4303  -10.8335 O   0  0  0  0  0  0
   -1.0324    2.9837   -9.5479 O   0  0  0  0  0  0
   -3.2231   -0.8166   -8.3905 C   0  0  0  0  0  0
   -2.9240   -0.8254   -7.2061 O   0  0  0  0  0  0
   -4.0428   -1.7275   -8.9329 O   0  0  0  0  0  0
   -8.4602    1.4044  -12.8264 O   0  0  0  0  0  0
   -9.2988    2.5066  -12.8224 C   0  0  0  0  0  0
   -9.1464    3.4950  -12.1166 O   0  0  0  0  0  0
  -10.4612    2.3594  -13.8131 C   0  0  0  0  0  0
  -10.3392    3.1896  -15.1286 C   0  0  0  0  0  0
   -9.8861    2.4588  -16.4057 C   0  0  0  0  0  0
   -9.0043    3.3010  -17.2819 C   0  0  0  0  0  0
   -8.3003    2.8880  -18.1931 O   0  0  0  0  0  0
   -9.0732    4.6057  -16.9766 O   0  0  0  0  0  0
  -11.5906    3.9993  -15.4899 C   0  0  0  0  0  0
  -12.6567    3.8544  -14.9250 O   0  0  0  0  0  0
  -11.4077    4.9682  -16.4113 O   0  0  0  0  0  0
    1.1948   11.7484   -9.8173 H   0  0  0  0  0  0
    0.6576   11.5031   -8.3100 H   0  0  0  0  0  0
    2.1899    7.9305  -11.6858 H   0  0  0  0  0  0
   -1.8812   11.0191  -13.4396 H   0  0  0  0  0  0
   -1.4953    3.3238  -12.3213 H   0  0  0  0  0  0
   -0.9694    3.6250  -10.2815 H   0  0  0  0  0  0
   -4.2300   -1.5898   -9.8945 H   0  0  0  0  0  0
   -8.5438    5.0809  -17.6513 H   0  0  0  0  0  0
  -10.6814    4.8052  -17.0533 H   0  0  0  0  0  0
  1  2  1  0  0  0
  2  3  1  0  0  0
  3  4  1  0  0  0
  4  5  1  0  0  0
  5  6  1  0  0  0
  5  7  1  0  0  0
  7  8  1  0  0  0
  7 39  1  0  0  0
  8  9  1  0  0  0
  8 27  1  0  0  0
  9 10  1  0  0  0
 10 11  1  0  0  0
 10 12  1  0  0  0
 12 13  1  0  0  0
 13 14  1  0  0  0
 13 26  1  0  0  0
 14 15  1  0  0  0
 15 16  1  0  0  0
 16 17  1  0  0  0
 17 18  1  0  0  0
 18 19  1  0  0  0
 18 25  1  0  0  0
 19 20  1  0  0  0
 20 21  1  0  0  0
 20 24  1  0  0  0
 21 22  1  0  0  0
 21 23  1  0  0  0
 23 51  1  0  0  0
 23 52  1  0  0  0
 24 53  1  0  0  0
 25 54  1  0  0  0
 26 55  1  0  0  0
 27 28  1  0  0  0
 28 29  2  0  0  0
 28 30  1  0  0  0
 30 31  1  0  0  0
 31 32  1  0  0  0
 31 36  1  0  0  0
 32 33  1  0  0  0
 33 34  2  0  0  0
 33 35  1  0  0  0
 35 56  1  0  0  0
 36 37  2  0  0  0
 36 38  1  0  0  0
 38 57  1  0  0  0
 39 40  1  0  0  0
 40 41  2  0  0  0
 40 42  1  0  0  0
 42 43  1  0  0  0
 43 44  1  0  0  0
 43 48  1  0  0  0
 44 45  1  0  0  0
 45 46  2  0  0  0
 45 47  1  0  0  0
 47 58  1  0  0  0
 48 49  2  0  0  0
 48 50  1  0  0  0
 50 59  1  0  0  0
M  END
>  <AUTHOR>
    GENERATED BY OPEN BABEL 2.4.1

>  <CHROM.1>
-164.71837799,165.14316414,-67.16188592,85.24198422,-176.61282991,157.48176125
-159.71080833,84.36870402,-173.80832586,168.75446557,76.64599731,-58.74232611
69.12765213,116.72477332,54.34764573,33.85982912,-82.13914928,-120.65144927
60.93859833,61.19784792,153.10343236,67.14651158,-54.30511369,2.32731466
174.47822131,134.07925346,-60.91102967,-95.87397708,-88.34530843,-158.72796009
-4.41949536,11.47730248,-104.49096268,101.18524377,-143.44539596,-10.84867054
164.24407583,-174.30722491,28.17900849,-4.87822077,3.74168225,-11.77521369
-2.75936705,-0.54148425,-0.52916814

>  <COMPND>
    UNNAMED

>  <MASTER>
        0    0    0    0    0    0    0    0  109    0  109    0

>  <Name>
FB1.pdb

>  <RI>
0

>  <Rbt.Current_Directory>
/home/fc/tossine/FB1_39/p3/3_clust03

>  <Rbt.Executable>
rbdock/0.1.0

>  <Rbt.Library>
librxdock.so/0.1.0

>  <Rbt.Parameter_File>
/cluster/rxdock/data/scripts/dock.prm

>  <Rbt.Receptor>
rx_0.prm

>  <SCORE>
32.5452

>  <SCORE.INTER>
19.2618

>  <SCORE.INTER.CONST>
1

>  <SCORE.INTER.POLAR>
-0.175012

>  <SCORE.INTER.REPUL>
0.345787

>  <SCORE.INTER.ROT>
32

>  <SCORE.INTER.VDW>
-19.2721

>  <SCORE.INTER.norm>
0.385235

>  <SCORE.INTRA>
10.552

>  <SCORE.INTRA.DIHEDRAL>
16.4448

>  <SCORE.INTRA.DIHEDRAL.0>
47.3121

>  <SCORE.INTRA.POLAR>
-0.143188

>  <SCORE.INTRA.POLAR.0>
-1.47808

>  <SCORE.INTRA.REPUL>
0

>  <SCORE.INTRA.REPUL.0>
0

>  <SCORE.INTRA.VDW>
2.81641

>  <SCORE.INTRA.VDW.0>
-2.78316

>  <SCORE.INTRA.norm>
0.21104

>  <SCORE.RESTR>
2.73141

>  <SCORE.RESTR.CAVITY>
2.73141

>  <SCORE.RESTR.norm>
0.0546281

>  <SCORE.SYSTEM>
0

>  <SCORE.SYSTEM.CONST>
0

>  <SCORE.SYSTEM.DIHEDRAL>
0

>  <SCORE.SYSTEM.norm>
0

>  <SCORE.heavy>
50

>  <SCORE.norm>
0.650903

$$$$
