FB1.pdb
  RxDock  10072016593D
librxdock.so/0.1.0
 59 58  0  0  0  0  0  0  0  0999 V2000
   -0.6973   -2.2339  -11.5484 C   0  0  0  0  0  0
   -1.8100   -1.6535  -12.4181 C   0  0  0  0  0  0
   -2.0671   -0.1713  -12.0997 C   0  0  0  0  0  0
   -3.2435    0.4378  -12.9025 C   0  0  0  0  0  0
   -4.6705    0.0894  -12.3524 C   0  0  0  0  0  0
   -4.8363   -1.4478  -12.3715 C   0  0  0  0  0  0
   -4.9502    0.6723  -10.9032 C   0  0  0  0  0  0
   -3.6733    0.9841   -9.9876 C   0  0  0  0  0  0
   -3.2471    2.4267   -9.4724 C   0  0  0  0  0  0
   -3.0442    3.5597  -10.6542 C   0  0  0  0  0  0
   -4.2845    4.4510  -10.6898 C   0  0  0  0  0  0
   -1.7368    4.4668  -10.5415 C   0  0  0  0  0  0
   -0.2280    3.8832  -10.5004 C   0  0  0  0  0  0
    0.7529    4.0040  -11.7167 C   0  0  0  0  0  0
    0.7151    5.3399  -12.5903 C   0  0  0  0  0  0
    1.5003    5.5372  -13.9465 C   0  0  0  0  0  0
    2.9962    5.9478  -13.9112 C   0  0  0  0  0  0
    3.5767    6.6116  -15.2194 C   0  0  0  0  0  0
    2.8159    7.8295  -15.7583 C   0  0  0  0  0  0
    3.4979    8.7005  -16.8513 C   0  0  0  0  0  0
    4.0463    8.0482  -18.1548 C   0  0  0  0  0  0
    4.3030    8.9865  -19.3258 C   0  0  0  0  0  0
    5.2357    7.2234  -17.8695 N   0  0  0  0  0  0
    2.4607    9.6120  -17.2952 O   0  0  0  0  0  0
    4.9289    7.0007  -14.9546 O   0  0  0  0  0  0
    0.4141    4.5941   -9.4285 O   0  0  0  0  0  0
   -3.8440    0.2043   -8.7730 O   0  0  0  0  0  0
   -3.3633   -1.0662   -8.7830 C   0  0  0  0  0  0
   -3.9045   -2.0363   -9.2784 O   0  0  0  0  0  0
   -1.9925   -1.0613   -8.1648 C   0  0  0  0  0  0
   -1.7874   -2.2186   -7.1744 C   0  0  0  0  0  0
   -2.7181   -2.1247   -5.9585 C   0  0  0  0  0  0
   -2.0545   -2.6804   -4.7199 C   0  0  0  0  0  0
   -0.9246   -3.1570   -4.7115 O   0  0  0  0  0  0
   -2.8209   -2.6018   -3.6221 O   0  0  0  0  0  0
   -2.0791   -3.5039   -7.9611 C   0  0  0  0  0  0
   -2.0019   -3.5728   -9.1784 O   0  0  0  0  0  0
   -2.4753   -4.5371   -7.2052 O   0  0  0  0  0  0
   -5.8857    1.8219  -10.9599 O   0  0  0  0  0  0
   -7.1824    1.5957  -11.3904 C   0  0  0  0  0  0
   -7.5626    0.5754  -11.9497 O   0  0  0  0  0  0
   -8.1125    2.7781  -11.0881 C   0  0  0  0  0  0
   -7.4352    4.1835  -11.0629 C   0  0  0  0  0  0
   -7.3896    4.9881  -12.3747 C   0  0  0  0  0  0
   -6.6368    4.2859  -13.4677 C   0  0  0  0  0  0
   -7.0139    3.2880  -14.0665 O   0  0  0  0  0  0
   -5.4716    4.8858  -13.7556 O   0  0  0  0  0  0
   -7.9605    5.1250   -9.9721 C   0  0  0  0  0  0
   -9.1350    5.4163   -9.8608 O   0  0  0  0  0  0
   -7.0452    5.5315   -9.0675 O   0  0  0  0  0  0
    5.4999    6.7152  -18.7125 H   0  0  0  0  0  0
    4.9770    6.4992  -17.1956 H   0  0  0  0  0  0
    1.7675    9.0312  -17.6741 H   0  0  0  0  0  0
    5.2099    7.6193  -15.6538 H   0  0  0  0  0  0
    0.0142    4.3023   -8.5922 H   0  0  0  0  0  0
   -3.6760   -2.1460   -3.7427 H   0  0  0  0  0  0
   -2.1963   -4.4827   -6.2576 H   0  0  0  0  0  0
   -5.4025    5.6645  -13.1639 H   0  0  0  0  0  0
   -7.3820    6.1427   -8.3753 H   0  0  0  0  0  0
  1  2  1  0  0  0
  2  3  1  0  0  0
  3  4  1  0  0  0
  4  5  1  0  0  0
  5  6  1  0  0  0
  5  7  1  0  0  0
  7  8  1  0  0  0
  7 39  1  0  0  0
  8  9  1  0  0  0
  8 27  1  0  0  0
  9 10  1  0  0  0
 10 11  1  0  0  0
 10 12  1  0  0  0
 12 13  1  0  0  0
 13 14  1  0  0  0
 13 26  1  0  0  0
 14 15  1  0  0  0
 15 16  1  0  0  0
 16 17  1  0  0  0
 17 18  1  0  0  0
 18 19  1  0  0  0
 18 25  1  0  0  0
 19 20  1  0  0  0
 20 21  1  0  0  0
 20 24  1  0  0  0
 21 22  1  0  0  0
 21 23  1  0  0  0
 23 51  1  0  0  0
 23 52  1  0  0  0
 24 53  1  0  0  0
 25 54  1  0  0  0
 26 55  1  0  0  0
 27 28  1  0  0  0
 28 29  2  0  0  0
 28 30  1  0  0  0
 30 31  1  0  0  0
 31 32  1  0  0  0
 31 36  1  0  0  0
 32 33  1  0  0  0
 33 34  2  0  0  0
 33 35  1  0  0  0
 35 56  1  0  0  0
 36 37  2  0  0  0
 36 38  1  0  0  0
 38 57  1  0  0  0
 39 40  1  0  0  0
 40 41  2  0  0  0
 40 42  1  0  0  0
 42 43  1  0  0  0
 43 44  1  0  0  0
 43 48  1  0  0  0
 44 45  1  0  0  0
 45 46  2  0  0  0
 45 47  1  0  0  0
 47 58  1  0  0  0
 48 49  2  0  0  0
 48 50  1  0  0  0
 50 59  1  0  0  0
M  END
>  <AUTHOR>
    GENERATED BY OPEN BABEL 2.4.1

>  <CHROM.1>
-176.71477333,79.07794780,-59.60693138,-23.66684004,116.14132811,64.69305598
-55.29100149,87.91470152,101.38185688,57.58254054,106.74211482,37.19702661
68.74892679,-171.76043674,-82.71845743,-159.10361402,53.74705310,167.21912918
-164.64400301,53.21599297,162.02487730,-62.38402117,172.73311898,-79.67645579
135.54093445,-63.95247747,-147.36389273,23.04997494,-0.91876990,-4.00492696
-23.24263764,-13.45044215,29.68965444,90.93221232,-60.60085160,-55.90059059
70.77518466,-0.40513307,179.35625866,-2.33847925,2.43517962,-11.35750524
-2.10321813,0.12359896,-0.66935117

>  <COMPND>
    UNNAMED

>  <MASTER>
        0    0    0    0    0    0    0    0  109    0  109    0

>  <Name>
FB1.pdb

>  <RI>
0

>  <Rbt.Current_Directory>
/home/fc/tossine/FB1_39/p3/3_clust03

>  <Rbt.Executable>
rbdock/0.1.0

>  <Rbt.Library>
librxdock.so/0.1.0

>  <Rbt.Parameter_File>
/cluster/rxdock/data/scripts/dock.prm

>  <Rbt.Receptor>
rx_2.prm

>  <SCORE>
40.2491

>  <SCORE.INTER>
7.9613

>  <SCORE.INTER.CONST>
1

>  <SCORE.INTER.POLAR>
-1.75559

>  <SCORE.INTER.REPUL>
0.176231

>  <SCORE.INTER.ROT>
32

>  <SCORE.INTER.VDW>
-24.3508

>  <SCORE.INTER.norm>
0.159226

>  <SCORE.INTRA>
25.985

>  <SCORE.INTRA.DIHEDRAL>
34.0651

>  <SCORE.INTRA.DIHEDRAL.0>
47.3121

>  <SCORE.INTRA.POLAR>
1.10959

>  <SCORE.INTRA.POLAR.0>
-1.47808

>  <SCORE.INTRA.REPUL>
0

>  <SCORE.INTRA.REPUL.0>
0

>  <SCORE.INTRA.VDW>
5.1799

>  <SCORE.INTRA.VDW.0>
-2.78316

>  <SCORE.INTRA.norm>
0.5197

>  <SCORE.RESTR>
6.30278

>  <SCORE.RESTR.CAVITY>
6.30278

>  <SCORE.RESTR.norm>
0.126056

>  <SCORE.SYSTEM>
0

>  <SCORE.SYSTEM.CONST>
0

>  <SCORE.SYSTEM.DIHEDRAL>
0

>  <SCORE.SYSTEM.norm>
0

>  <SCORE.heavy>
50

>  <SCORE.norm>
0.804982

$$$$
