FB1.pdb
  RxDock  10072016043D
librxdock.so/0.1.0
 59 58  0  0  0  0  0  0  0  0999 V2000
   -2.0735    0.0199  -13.8184 C   0  0  0  0  0  0
   -1.9774    1.3606  -13.0941 C   0  0  0  0  0  0
   -2.6958    2.4784  -13.8678 C   0  0  0  0  0  0
   -2.6834    3.8431  -13.1349 C   0  0  0  0  0  0
   -3.7022    4.9001  -13.6874 C   0  0  0  0  0  0
   -5.0234    4.1710  -14.0242 C   0  0  0  0  0  0
   -3.9593    6.1110  -12.6946 C   0  0  0  0  0  0
   -4.2383    5.7447  -11.1603 C   0  0  0  0  0  0
   -5.5132    6.2022  -10.3276 C   0  0  0  0  0  0
   -6.8050    6.6830  -11.2339 C   0  0  0  0  0  0
   -7.4166    5.4509  -11.8987 C   0  0  0  0  0  0
   -7.9417    7.4945  -10.4631 C   0  0  0  0  0  0
   -7.6891    8.8870   -9.6783 C   0  0  0  0  0  0
   -7.1153   10.1601  -10.3896 C   0  0  0  0  0  0
   -5.5948   10.1354  -10.8760 C   0  0  0  0  0  0
   -4.5734    8.9782  -10.5412 C   0  0  0  0  0  0
   -3.0824    9.1350  -10.9410 C   0  0  0  0  0  0
   -2.1835   10.0099   -9.9841 C   0  0  0  0  0  0
   -0.6755    9.9912  -10.2635 C   0  0  0  0  0  0
    0.2794   10.6003   -9.1979 C   0  0  0  0  0  0
    1.8178   10.3784   -9.2948 C   0  0  0  0  0  0
    2.5083   10.9485  -10.5259 C   0  0  0  0  0  0
    2.4915   10.8218   -8.0595 N   0  0  0  0  0  0
    0.0984   12.0343   -9.3190 O   0  0  0  0  0  0
   -2.6436   11.3635  -10.0613 O   0  0  0  0  0  0
   -8.9850    9.2791   -9.1950 O   0  0  0  0  0  0
   -4.2624    4.2934  -11.0868 O   0  0  0  0  0  0
   -3.4199    3.7067  -10.1973 C   0  0  0  0  0  0
   -2.4403    4.2180   -9.6892 O   0  0  0  0  0  0
   -3.9570    2.3428   -9.8613 C   0  0  0  0  0  0
   -4.8792    1.7851  -10.9573 C   0  0  0  0  0  0
   -4.5985    0.3092  -11.2679 C   0  0  0  0  0  0
   -5.8753   -0.4326  -11.5890 C   0  0  0  0  0  0
   -6.5059   -1.0856  -10.7647 O   0  0  0  0  0  0
   -6.2583   -0.3080  -12.8683 O   0  0  0  0  0  0
   -6.3105    1.9473  -10.4271 C   0  0  0  0  0  0
   -7.1952    2.5076  -11.0563 O   0  0  0  0  0  0
   -6.5003    1.4659   -9.1910 O   0  0  0  0  0  0
   -2.9103    7.1501  -12.8346 O   0  0  0  0  0  0
   -1.5840    6.7664  -12.7266 C   0  0  0  0  0  0
   -0.7122    7.0368  -13.5423 O   0  0  0  0  0  0
   -1.3134    5.9523  -11.4545 C   0  0  0  0  0  0
   -0.3440    4.7408  -11.6190 C   0  0  0  0  0  0
    0.8514    4.8958  -12.5767 C   0  0  0  0  0  0
    1.7548    6.0369  -12.2074 C   0  0  0  0  0  0
    1.8857    7.0765  -12.8388 O   0  0  0  0  0  0
    2.4212    5.8146  -11.0642 O   0  0  0  0  0  0
    0.2016    4.1772  -10.3011 C   0  0  0  0  0  0
    0.4971    4.8798   -9.3546 O   0  0  0  0  0  0
    0.2343    2.8307  -10.2161 O   0  0  0  0  0  0
    2.3163   10.1419   -7.3210 H   0  0  0  0  0  0
    2.0460   11.6833   -7.7356 H   0  0  0  0  0  0
    0.8837   12.4202   -8.8765 H   0  0  0  0  0  0
   -2.0210   11.9252   -9.5639 H   0  0  0  0  0  0
   -9.5953    9.2965   -9.9511 H   0  0  0  0  0  0
   -5.6736    0.2393  -13.4268 H   0  0  0  0  0  0
   -7.4179    1.5851   -8.8409 H   0  0  0  0  0  0
    2.9456    6.6228  -10.8826 H   0  0  0  0  0  0
    0.7211    2.4708   -9.4417 H   0  0  0  0  0  0
  1  2  1  0  0  0
  2  3  1  0  0  0
  3  4  1  0  0  0
  4  5  1  0  0  0
  5  6  1  0  0  0
  5  7  1  0  0  0
  7  8  1  0  0  0
  7 39  1  0  0  0
  8  9  1  0  0  0
  8 27  1  0  0  0
  9 10  1  0  0  0
 10 11  1  0  0  0
 10 12  1  0  0  0
 12 13  1  0  0  0
 13 14  1  0  0  0
 13 26  1  0  0  0
 14 15  1  0  0  0
 15 16  1  0  0  0
 16 17  1  0  0  0
 17 18  1  0  0  0
 18 19  1  0  0  0
 18 25  1  0  0  0
 19 20  1  0  0  0
 20 21  1  0  0  0
 20 24  1  0  0  0
 21 22  1  0  0  0
 21 23  1  0  0  0
 23 51  1  0  0  0
 23 52  1  0  0  0
 24 53  1  0  0  0
 25 54  1  0  0  0
 26 55  1  0  0  0
 27 28  1  0  0  0
 28 29  2  0  0  0
 28 30  1  0  0  0
 30 31  1  0  0  0
 31 32  1  0  0  0
 31 36  1  0  0  0
 32 33  1  0  0  0
 33 34  2  0  0  0
 33 35  1  0  0  0
 35 56  1  0  0  0
 36 37  2  0  0  0
 36 38  1  0  0  0
 38 57  1  0  0  0
 39 40  1  0  0  0
 40 41  2  0  0  0
 40 42  1  0  0  0
 42 43  1  0  0  0
 43 44  1  0  0  0
 43 48  1  0  0  0
 44 45  1  0  0  0
 45 46  2  0  0  0
 45 47  1  0  0  0
 47 58  1  0  0  0
 48 49  2  0  0  0
 48 50  1  0  0  0
 50 59  1  0  0  0
M  END
>  <AUTHOR>
    GENERATED BY OPEN BABEL 2.4.1

>  <CHROM.1>
177.16967534,-164.79609678,40.17779300,-46.84436585,-124.83301665,-53.34812719
18.95216070,125.03015920,71.42495316,58.78645619,58.27016507,-68.96706630
-54.05291065,-7.49250543,-173.55762085,80.41371338,171.17049733,-168.18268603
-172.74502177,168.61498742,62.58707099,-162.19732581,74.44965185,-18.64944815
23.39355692,136.12184109,144.15094567,127.03944653,-96.10487049,-0.02869826
178.89185652,128.53094968,139.84310712,36.86778283,58.40346029,-37.49071915
-110.50106395,-177.27228906,170.05133956,-2.99676868,5.72006485,-11.12640356
-2.14352711,0.07288001,0.21512734

>  <COMPND>
    UNNAMED

>  <MASTER>
        0    0    0    0    0    0    0    0  109    0  109    0

>  <Name>
FB1.pdb

>  <RI>
0

>  <Rbt.Current_Directory>
/home/fc/tossine/FB1_39/p3/3_clust03

>  <Rbt.Executable>
rbdock/0.1.0

>  <Rbt.Library>
librxdock.so/0.1.0

>  <Rbt.Parameter_File>
/cluster/rxdock/data/scripts/dock.prm

>  <Rbt.Receptor>
rx_1.prm

>  <SCORE>
30.2765

>  <SCORE.INTER>
9.10149

>  <SCORE.INTER.CONST>
1

>  <SCORE.INTER.POLAR>
-3.21629

>  <SCORE.INTER.REPUL>
0.374875

>  <SCORE.INTER.ROT>
32

>  <SCORE.INTER.VDW>
-19.2375

>  <SCORE.INTER.norm>
0.18203

>  <SCORE.INTRA>
19.212

>  <SCORE.INTRA.DIHEDRAL>
24.0266

>  <SCORE.INTRA.DIHEDRAL.0>
47.3121

>  <SCORE.INTRA.POLAR>
0.75459

>  <SCORE.INTRA.POLAR.0>
-1.47808

>  <SCORE.INTRA.REPUL>
0

>  <SCORE.INTRA.REPUL.0>
0

>  <SCORE.INTRA.VDW>
4.63311

>  <SCORE.INTRA.VDW.0>
-2.78316

>  <SCORE.INTRA.norm>
0.384241

>  <SCORE.RESTR>
1.963

>  <SCORE.RESTR.CAVITY>
1.963

>  <SCORE.RESTR.norm>
0.03926

>  <SCORE.SYSTEM>
0

>  <SCORE.SYSTEM.CONST>
0

>  <SCORE.SYSTEM.DIHEDRAL>
0

>  <SCORE.SYSTEM.norm>
0

>  <SCORE.heavy>
50

>  <SCORE.norm>
0.60553

$$$$
