FB1.pdb
  RxDock  10072017083D
librxdock.so/0.1.0
 59 58  0  0  0  0  0  0  0  0999 V2000
  -15.2866   -9.1036    1.1454 C   0  0  0  0  0  0
  -15.3800   -9.1900    2.6670 C   0  0  0  0  0  0
  -14.1003   -9.7788    3.2834 C   0  0  0  0  0  0
  -14.1541   -9.8920    4.8274 C   0  0  0  0  0  0
  -14.2591   -8.5240    5.5878 C   0  0  0  0  0  0
  -15.7517   -8.1295    5.6735 C   0  0  0  0  0  0
  -13.5948   -8.5478    7.0286 C   0  0  0  0  0  0
  -12.0135   -8.7952    7.0947 C   0  0  0  0  0  0
  -10.9519   -8.2091    6.0662 C   0  0  0  0  0  0
   -9.4461   -8.8765    6.1587 C   0  0  0  0  0  0
   -8.6697   -8.4985    4.8984 C   0  0  0  0  0  0
   -8.5877   -8.4989    7.4492 C   0  0  0  0  0  0
   -7.9563   -9.5851    8.4690 C   0  0  0  0  0  0
   -7.0020  -10.7321    7.9895 C   0  0  0  0  0  0
   -5.4941  -10.3583    7.6211 C   0  0  0  0  0  0
   -4.3681  -11.4190    7.3024 C   0  0  0  0  0  0
   -4.4718  -12.2813    6.0166 C   0  0  0  0  0  0
   -3.7678  -13.6927    6.0550 C   0  0  0  0  0  0
   -4.5692  -14.8345    6.6927 C   0  0  0  0  0  0
   -6.1109  -14.6733    6.8174 C   0  0  0  0  0  0
   -7.0090  -14.6443    5.5454 C   0  0  0  0  0  0
   -8.4269  -15.1748    5.7049 C   0  0  0  0  0  0
   -7.0141  -13.3006    4.9363 N   0  0  0  0  0  0
   -6.5443  -15.8438    7.5563 O   0  0  0  0  0  0
   -3.4429  -14.0609    4.7102 O   0  0  0  0  0  0
   -7.1767   -8.8115    9.3966 O   0  0  0  0  0  0
  -11.5773   -8.2935    8.3871 O   0  0  0  0  0  0
  -11.0024   -9.1869    9.2336 C   0  0  0  0  0  0
  -10.9836  -10.3957    9.0996 O   0  0  0  0  0  0
  -10.2982   -8.4256   10.3226 C   0  0  0  0  0  0
  -11.1313   -7.2482   10.8535 C   0  0  0  0  0  0
  -12.3618   -7.7077   11.6460 C   0  0  0  0  0  0
  -13.3192   -6.5621   11.8790 C   0  0  0  0  0  0
  -13.1128   -5.4165   11.4934 O   0  0  0  0  0  0
  -14.4247   -6.9177   12.5502 O   0  0  0  0  0  0
  -10.1923   -6.4427   11.7620 C   0  0  0  0  0  0
  -10.1576   -6.5806   12.9753 O   0  0  0  0  0  0
   -9.4441   -5.5357   11.1189 O   0  0  0  0  0  0
  -14.0049   -7.3669    7.8269 O   0  0  0  0  0  0
  -13.9290   -6.1153    7.2388 C   0  0  0  0  0  0
  -14.7997   -5.2580    7.3111 O   0  0  0  0  0  0
  -12.6155   -5.9088    6.4730 C   0  0  0  0  0  0
  -11.6729   -4.7982    7.0320 C   0  0  0  0  0  0
  -12.2132   -3.8850    8.1476 C   0  0  0  0  0  0
  -11.1609   -2.9873    8.7319 C   0  0  0  0  0  0
  -10.4929   -2.1723    8.1105 O   0  0  0  0  0  0
  -11.0243   -3.1512   10.0566 O   0  0  0  0  0  0
  -10.2955   -5.2990    7.4840 C   0  0  0  0  0  0
   -9.2795   -5.1012    6.8473 O   0  0  0  0  0  0
  -10.2626   -5.8872    8.6981 O   0  0  0  0  0  0
   -6.1745  -13.1874    4.3699 H   0  0  0  0  0  0
   -6.9260  -12.6045    5.6800 H   0  0  0  0  0  0
   -6.2237  -15.6912    8.4702 H   0  0  0  0  0  0
   -2.9586  -14.9067    4.7349 H   0  0  0  0  0  0
   -6.6001   -8.2199    8.8847 H   0  0  0  0  0  0
  -14.4092   -7.8161   12.9322 H   0  0  0  0  0  0
   -8.8718   -4.9842   11.7080 H   0  0  0  0  0  0
  -10.2978   -3.7967   10.1868 H   0  0  0  0  0  0
   -9.3673   -6.1323    9.0216 H   0  0  0  0  0  0
  1  2  1  0  0  0
  2  3  1  0  0  0
  3  4  1  0  0  0
  4  5  1  0  0  0
  5  6  1  0  0  0
  5  7  1  0  0  0
  7  8  1  0  0  0
  7 39  1  0  0  0
  8  9  1  0  0  0
  8 27  1  0  0  0
  9 10  1  0  0  0
 10 11  1  0  0  0
 10 12  1  0  0  0
 12 13  1  0  0  0
 13 14  1  0  0  0
 13 26  1  0  0  0
 14 15  1  0  0  0
 15 16  1  0  0  0
 16 17  1  0  0  0
 17 18  1  0  0  0
 18 19  1  0  0  0
 18 25  1  0  0  0
 19 20  1  0  0  0
 20 21  1  0  0  0
 20 24  1  0  0  0
 21 22  1  0  0  0
 21 23  1  0  0  0
 23 51  1  0  0  0
 23 52  1  0  0  0
 24 53  1  0  0  0
 25 54  1  0  0  0
 26 55  1  0  0  0
 27 28  1  0  0  0
 28 29  2  0  0  0
 28 30  1  0  0  0
 30 31  1  0  0  0
 31 32  1  0  0  0
 31 36  1  0  0  0
 32 33  1  0  0  0
 33 34  2  0  0  0
 33 35  1  0  0  0
 35 56  1  0  0  0
 36 37  2  0  0  0
 36 38  1  0  0  0
 38 57  1  0  0  0
 39 40  1  0  0  0
 40 41  2  0  0  0
 40 42  1  0  0  0
 42 43  1  0  0  0
 43 44  1  0  0  0
 43 48  1  0  0  0
 44 45  1  0  0  0
 45 46  2  0  0  0
 45 47  1  0  0  0
 47 58  1  0  0  0
 48 49  2  0  0  0
 48 50  1  0  0  0
 50 59  1  0  0  0
M  END
>  <AUTHOR>
    GENERATED BY OPEN BABEL 2.4.1

>  <CHROM.1>
-179.68886786,-64.08154159,85.85113264,63.74770180,38.06457498,-48.08472882
-167.05348275,119.25501058,164.98112346,124.02889637,55.70933115,75.31765853
-50.16988989,171.87103395,67.15966260,-153.02737957,83.27016305,19.70225418
176.54690018,67.26142712,150.23639711,71.50147935,81.14963887,-11.06580319
43.09498428,69.35411696,-166.96599043,-96.49590697,-0.95657180,9.86221593
177.05966271,135.43524147,-115.53020007,-8.66561965,172.05983255,105.75280538
58.34363658,94.38300165,-174.58502889,-10.27847778,-8.63708989,7.66890253
2.41319248,-0.51230936,0.81461762

>  <COMPND>
    UNNAMED

>  <MASTER>
        0    0    0    0    0    0    0    0  109    0  109    0

>  <Name>
FB1.pdb

>  <RI>
0

>  <Rbt.Current_Directory>
/home/fc/tossine/FB1_39/p3/3_clust03

>  <Rbt.Executable>
rbdock/0.1.0

>  <Rbt.Library>
librxdock.so/0.1.0

>  <Rbt.Parameter_File>
/cluster/rxdock/data/scripts/dock.prm

>  <Rbt.Receptor>
rx_2.prm

>  <SCORE>
26.0746

>  <SCORE.INTER>
3.59495

>  <SCORE.INTER.CONST>
1

>  <SCORE.INTER.POLAR>
-2.03003

>  <SCORE.INTER.REPUL>
0.196258

>  <SCORE.INTER.ROT>
32

>  <SCORE.INTER.VDW>
-27.8842

>  <SCORE.INTER.norm>
0.0718991

>  <SCORE.INTRA>
21.3548

>  <SCORE.INTRA.DIHEDRAL>
41.7641

>  <SCORE.INTRA.DIHEDRAL.0>
47.3121

>  <SCORE.INTRA.POLAR>
0.433014

>  <SCORE.INTRA.POLAR.0>
-1.47808

>  <SCORE.INTRA.REPUL>
0

>  <SCORE.INTRA.REPUL.0>
0

>  <SCORE.INTRA.VDW>
-0.999541

>  <SCORE.INTRA.VDW.0>
-2.78316

>  <SCORE.INTRA.norm>
0.427095

>  <SCORE.RESTR>
1.12489

>  <SCORE.RESTR.CAVITY>
1.12489

>  <SCORE.RESTR.norm>
0.0224978

>  <SCORE.SYSTEM>
0

>  <SCORE.SYSTEM.CONST>
0

>  <SCORE.SYSTEM.DIHEDRAL>
0

>  <SCORE.SYSTEM.norm>
0

>  <SCORE.heavy>
50

>  <SCORE.norm>
0.521492

$$$$
