FB1.pdb
  RxDock  10072017093D
librxdock.so/0.1.0
 59 58  0  0  0  0  0  0  0  0999 V2000
   -6.3852   -3.4792  -13.9825 C   0  0  0  0  0  0
   -5.9924   -2.0132  -14.1491 C   0  0  0  0  0  0
   -6.4505   -1.1615  -12.9537 C   0  0  0  0  0  0
   -5.4251   -1.1242  -11.7931 C   0  0  0  0  0  0
   -6.0478   -0.9333  -10.3661 C   0  0  0  0  0  0
   -5.8810   -2.2558   -9.5826 C   0  0  0  0  0  0
   -5.4260    0.2851   -9.5617 C   0  0  0  0  0  0
   -3.8912    0.6394   -9.8532 C   0  0  0  0  0  0
   -3.2983    2.1099   -9.9726 C   0  0  0  0  0  0
   -2.0737    2.2839  -11.0642 C   0  0  0  0  0  0
   -2.6364    2.0520  -12.4655 C   0  0  0  0  0  0
   -1.2895    3.6725  -11.0257 C   0  0  0  0  0  0
   -0.1768    4.1170  -12.1133 C   0  0  0  0  0  0
    0.3528    5.5881  -12.2203 C   0  0  0  0  0  0
    0.7037    6.3667  -10.8713 C   0  0  0  0  0  0
    0.0326    7.7266  -10.4298 C   0  0  0  0  0  0
    0.0889    8.9511  -11.3810 C   0  0  0  0  0  0
   -0.6019    8.7829  -12.7894 C   0  0  0  0  0  0
   -2.1356    8.7815  -12.7980 C   0  0  0  0  0  0
   -2.8778    7.8676  -11.7820 C   0  0  0  0  0  0
   -3.6451    8.4852  -10.5757 C   0  0  0  0  0  0
   -2.8967    9.5302   -9.7600 C   0  0  0  0  0  0
   -4.9656    8.9910  -10.9961 N   0  0  0  0  0  0
   -3.8937    7.1936  -12.5678 O   0  0  0  0  0  0
   -0.1433    9.8428  -13.6357 O   0  0  0  0  0  0
    0.9808    3.3230  -11.8033 O   0  0  0  0  0  0
   -3.1224    0.0273   -8.7824 O   0  0  0  0  0  0
   -2.4980   -1.1458   -9.0640 C   0  0  0  0  0  0
   -2.3092   -1.6126  -10.1711 O   0  0  0  0  0  0
   -1.9830   -1.7315   -7.7782 C   0  0  0  0  0  0
   -2.9582   -1.5333   -6.6068 C   0  0  0  0  0  0
   -4.3647   -2.0623   -6.9159 C   0  0  0  0  0  0
   -4.7500   -3.1731   -5.9667 C   0  0  0  0  0  0
   -5.6563   -3.0801   -5.1460 O   0  0  0  0  0  0
   -4.0043   -4.2790   -6.1076 O   0  0  0  0  0  0
   -2.3565   -2.3019   -5.4223 C   0  0  0  0  0  0
   -1.3816   -3.0306   -5.5262 O   0  0  0  0  0  0
   -3.0200   -2.1471   -4.2682 O   0  0  0  0  0  0
   -6.2970    1.4826   -9.6461 O   0  0  0  0  0  0
   -6.6997    1.9179  -10.8977 C   0  0  0  0  0  0
   -6.1072    1.6792  -11.9418 O   0  0  0  0  0  0
   -7.9904    2.7456  -10.8405 C   0  0  0  0  0  0
   -7.8364    4.2638  -11.1663 C   0  0  0  0  0  0
   -6.9276    5.1102  -10.2564 C   0  0  0  0  0  0
   -5.4691    4.7996  -10.4318 C   0  0  0  0  0  0
   -4.9015    4.6188  -11.5003 O   0  0  0  0  0  0
   -4.8100    4.7541   -9.2639 O   0  0  0  0  0  0
   -7.4360    4.5676  -12.6153 C   0  0  0  0  0  0
   -6.8217    3.7816  -13.3092 O   0  0  0  0  0  0
   -7.9042    5.7309  -13.1140 O   0  0  0  0  0  0
   -4.8372    9.8218  -11.5720 H   0  0  0  0  0  0
   -5.4683    9.3193  -10.1684 H   0  0  0  0  0  0
   -3.3893    6.6366  -13.1976 H   0  0  0  0  0  0
   -0.4526   10.6876  -13.2598 H   0  0  0  0  0  0
    1.2771    3.5600  -10.9086 H   0  0  0  0  0  0
   -4.2585   -5.0285   -5.5356 H   0  0  0  0  0  0
   -2.5669   -2.5360   -3.4794 H   0  0  0  0  0  0
   -3.8688    4.5831   -9.4785 H   0  0  0  0  0  0
   -7.6527    5.9197  -14.0453 H   0  0  0  0  0  0
  1  2  1  0  0  0
  2  3  1  0  0  0
  3  4  1  0  0  0
  4  5  1  0  0  0
  5  6  1  0  0  0
  5  7  1  0  0  0
  7  8  1  0  0  0
  7 39  1  0  0  0
  8  9  1  0  0  0
  8 27  1  0  0  0
  9 10  1  0  0  0
 10 11  1  0  0  0
 10 12  1  0  0  0
 12 13  1  0  0  0
 13 14  1  0  0  0
 13 26  1  0  0  0
 14 15  1  0  0  0
 15 16  1  0  0  0
 16 17  1  0  0  0
 17 18  1  0  0  0
 18 19  1  0  0  0
 18 25  1  0  0  0
 19 20  1  0  0  0
 20 21  1  0  0  0
 20 24  1  0  0  0
 21 22  1  0  0  0
 21 23  1  0  0  0
 23 51  1  0  0  0
 23 52  1  0  0  0
 24 53  1  0  0  0
 25 54  1  0  0  0
 26 55  1  0  0  0
 27 28  1  0  0  0
 28 29  2  0  0  0
 28 30  1  0  0  0
 30 31  1  0  0  0
 31 32  1  0  0  0
 31 36  1  0  0  0
 32 33  1  0  0  0
 33 34  2  0  0  0
 33 35  1  0  0  0
 35 56  1  0  0  0
 36 37  2  0  0  0
 36 38  1  0  0  0
 38 57  1  0  0  0
 39 40  1  0  0  0
 40 41  2  0  0  0
 40 42  1  0  0  0
 42 43  1  0  0  0
 43 44  1  0  0  0
 43 48  1  0  0  0
 44 45  1  0  0  0
 45 46  2  0  0  0
 45 47  1  0  0  0
 47 58  1  0  0  0
 48 49  2  0  0  0
 48 50  1  0  0  0
 50 59  1  0  0  0
M  END
>  <AUTHOR>
    GENERATED BY OPEN BABEL 2.4.1

>  <CHROM.1>
87.57799062,-150.65541631,110.25123980,-31.13078106,139.87003255,-52.21666201
-145.57536652,100.79301356,66.42501273,-172.58325808,166.98618489,43.71471532
-62.68620459,-121.35068202,-55.99089600,61.14377994,73.20550827,-48.63753910
-64.16154014,109.01045285,-48.19323677,65.03943854,-70.59681043,14.49640114
38.80232755,54.15515412,118.22289991,-7.78220431,114.07948776,-177.25399175
-171.88287149,-23.38669950,111.14899572,-61.29905134,70.99933674,-26.01625874
42.48147737,-177.78269028,-179.49166955,-3.82221033,2.51343178,-10.34386273
1.76101646,0.48545262,2.66955227

>  <COMPND>
    UNNAMED

>  <MASTER>
        0    0    0    0    0    0    0    0  109    0  109    0

>  <Name>
FB1.pdb

>  <RI>
0

>  <Rbt.Current_Directory>
/home/fc/tossine/FB1_39/p3/3_clust03

>  <Rbt.Executable>
rbdock/0.1.0

>  <Rbt.Library>
librxdock.so/0.1.0

>  <Rbt.Parameter_File>
/cluster/rxdock/data/scripts/dock.prm

>  <Rbt.Receptor>
rx_2.prm

>  <SCORE>
32.0245

>  <SCORE.INTER>
17.5845

>  <SCORE.INTER.CONST>
1

>  <SCORE.INTER.POLAR>
-2.54595

>  <SCORE.INTER.REPUL>
1.34873

>  <SCORE.INTER.ROT>
32

>  <SCORE.INTER.VDW>
-17.9029

>  <SCORE.INTER.norm>
0.35169

>  <SCORE.INTRA>
10.8007

>  <SCORE.INTRA.DIHEDRAL>
18.4044

>  <SCORE.INTRA.DIHEDRAL.0>
47.3121

>  <SCORE.INTRA.POLAR>
1.47808

>  <SCORE.INTRA.POLAR.0>
-1.47808

>  <SCORE.INTRA.REPUL>
0

>  <SCORE.INTRA.REPUL.0>
0

>  <SCORE.INTRA.VDW>
-3.427

>  <SCORE.INTRA.VDW.0>
-2.78316

>  <SCORE.INTRA.norm>
0.216013

>  <SCORE.RESTR>
3.63934

>  <SCORE.RESTR.CAVITY>
3.63934

>  <SCORE.RESTR.norm>
0.0727869

>  <SCORE.SYSTEM>
0

>  <SCORE.SYSTEM.CONST>
0

>  <SCORE.SYSTEM.DIHEDRAL>
0

>  <SCORE.SYSTEM.norm>
0

>  <SCORE.heavy>
50

>  <SCORE.norm>
0.64049

$$$$
