FB1.pdb
  RxDock  10072018263D
librxdock.so/0.1.0
 59 58  0  0  0  0  0  0  0  0999 V2000
   -6.9995   11.0936  -10.5125 C   0  0  0  0  0  0
   -7.4031    9.7078  -11.0105 C   0  0  0  0  0  0
   -6.2886    8.6735  -10.7812 C   0  0  0  0  0  0
   -6.8192    7.2424  -10.5162 C   0  0  0  0  0  0
   -5.7616    6.2425   -9.9314 C   0  0  0  0  0  0
   -6.4841    5.2904   -8.9505 C   0  0  0  0  0  0
   -4.9804    5.4246  -11.0444 C   0  0  0  0  0  0
   -3.8031    4.4603  -10.5440 C   0  0  0  0  0  0
   -3.7537    2.8863  -10.7642 C   0  0  0  0  0  0
   -4.6034    1.9991   -9.6632 C   0  0  0  0  0  0
   -5.6556    1.1798  -10.4088 C   0  0  0  0  0  0
   -3.7457    1.0383   -8.7220 C   0  0  0  0  0  0
   -2.9705   -0.2843   -9.2402 C   0  0  0  0  0  0
   -2.1255   -1.1923   -8.2823 C   0  0  0  0  0  0
   -2.8077   -1.7148   -6.9366 C   0  0  0  0  0  0
   -2.0217   -2.3970   -5.7486 C   0  0  0  0  0  0
   -2.5649   -3.7108   -5.1271 C   0  0  0  0  0  0
   -3.6603   -3.5587   -4.0019 C   0  0  0  0  0  0
   -4.1316   -4.8559   -3.3328 C   0  0  0  0  0  0
   -5.0251   -4.7490   -2.0645 C   0  0  0  0  0  0
   -5.8597   -5.9709   -1.5791 C   0  0  0  0  0  0
   -6.9292   -6.4831   -2.5338 C   0  0  0  0  0  0
   -4.9776   -7.0680   -1.1379 N   0  0  0  0  0  0
   -4.0976   -4.4746   -0.9836 O   0  0  0  0  0  0
   -3.1378   -2.6896   -2.9913 O   0  0  0  0  0  0
   -4.0043   -1.1410   -9.7541 O   0  0  0  0  0  0
   -2.5847    4.9493  -11.1676 O   0  0  0  0  0  0
   -1.8774    5.8883  -10.4869 C   0  0  0  0  0  0
   -2.3384    6.8353   -9.8786 O   0  0  0  0  0  0
   -0.4231    5.5073  -10.5227 C   0  0  0  0  0  0
   -0.2126    4.0026  -10.7550 C   0  0  0  0  0  0
   -1.0813    3.1374   -9.8330 C   0  0  0  0  0  0
   -0.6490    1.6902   -9.8767 C   0  0  0  0  0  0
    0.0049    1.1506   -8.9907 O   0  0  0  0  0  0
   -1.0514    1.0454  -10.9817 O   0  0  0  0  0  0
   -0.5858    3.7459  -12.2215 C   0  0  0  0  0  0
   -1.3866    2.8900  -12.5659 O   0  0  0  0  0  0
    0.0779    4.5070  -13.1025 O   0  0  0  0  0  0
   -5.9206    4.7256  -11.9540 O   0  0  0  0  0  0
   -5.4296    4.2160  -13.1445 C   0  0  0  0  0  0
   -4.2634    4.2961  -13.5079 O   0  0  0  0  0  0
   -6.5182    3.5266  -13.9775 C   0  0  0  0  0  0
   -7.9825    3.9806  -13.6874 C   0  0  0  0  0  0
   -8.2220    5.4545  -13.3125 C   0  0  0  0  0  0
   -9.2686    5.6269  -12.2498 C   0  0  0  0  0  0
   -9.0738    5.5837  -11.0428 O   0  0  0  0  0  0
  -10.4864    5.8611  -12.7621 O   0  0  0  0  0  0
   -8.9906    3.6233  -14.7867 C   0  0  0  0  0  0
   -8.6758    3.4882  -15.9526 O   0  0  0  0  0  0
  -10.2438    3.3606  -14.3604 O   0  0  0  0  0  0
   -5.0653   -7.1819   -0.1290 H   0  0  0  0  0  0
   -4.0062   -6.7864   -1.2877 H   0  0  0  0  0  0
   -4.6695   -4.2825   -0.2107 H   0  0  0  0  0  0
   -2.3137   -3.0822   -2.6488 H   0  0  0  0  0  0
   -3.5785   -1.9020  -10.1831 H   0  0  0  0  0  0
   -1.6017    1.5710  -11.5936 H   0  0  0  0  0  0
    0.1709    4.1064  -14.0023 H   0  0  0  0  0  0
  -11.0937    5.9788  -12.0014 H   0  0  0  0  0  0
  -10.3418    3.2486  -13.3888 H   0  0  0  0  0  0
  1  2  1  0  0  0
  2  3  1  0  0  0
  3  4  1  0  0  0
  4  5  1  0  0  0
  5  6  1  0  0  0
  5  7  1  0  0  0
  7  8  1  0  0  0
  7 39  1  0  0  0
  8  9  1  0  0  0
  8 27  1  0  0  0
  9 10  1  0  0  0
 10 11  1  0  0  0
 10 12  1  0  0  0
 12 13  1  0  0  0
 13 14  1  0  0  0
 13 26  1  0  0  0
 14 15  1  0  0  0
 15 16  1  0  0  0
 16 17  1  0  0  0
 17 18  1  0  0  0
 18 19  1  0  0  0
 18 25  1  0  0  0
 19 20  1  0  0  0
 20 21  1  0  0  0
 20 24  1  0  0  0
 21 22  1  0  0  0
 21 23  1  0  0  0
 23 51  1  0  0  0
 23 52  1  0  0  0
 24 53  1  0  0  0
 25 54  1  0  0  0
 26 55  1  0  0  0
 27 28  1  0  0  0
 28 29  2  0  0  0
 28 30  1  0  0  0
 30 31  1  0  0  0
 31 32  1  0  0  0
 31 36  1  0  0  0
 32 33  1  0  0  0
 33 34  2  0  0  0
 33 35  1  0  0  0
 35 56  1  0  0  0
 36 37  2  0  0  0
 36 38  1  0  0  0
 38 57  1  0  0  0
 39 40  1  0  0  0
 40 41  2  0  0  0
 40 42  1  0  0  0
 42 43  1  0  0  0
 43 44  1  0  0  0
 43 48  1  0  0  0
 44 45  1  0  0  0
 45 46  2  0  0  0
 45 47  1  0  0  0
 47 58  1  0  0  0
 48 49  2  0  0  0
 48 50  1  0  0  0
 50 59  1  0  0  0
M  END
>  <AUTHOR>
    GENERATED BY OPEN BABEL 2.4.1

>  <CHROM.1>
148.39805255,-165.47195647,144.98257855,175.49908223,119.76371818,165.85061434
-82.99397926,89.73750296,120.99991939,-68.85889401,179.32337418,51.62525905
172.77750365,-167.84068198,-132.61748772,-84.76020430,-176.44640069,169.92152957
-58.55731976,162.52241102,-62.41441713,172.27725202,111.64446462,-41.39369166
-23.58111503,-48.36566736,-168.10148476,-127.34205769,103.45759799,-2.69926794
153.64784290,0.17719610,23.35832034,34.42476918,-141.46766490,-27.08540312
86.46162316,-178.77264867,-11.69531630,-4.56822585,2.24510768,-9.53778553
1.74021112,-0.01416139,-0.71133102

>  <COMPND>
    UNNAMED

>  <MASTER>
        0    0    0    0    0    0    0    0  109    0  109    0

>  <Name>
FB1.pdb

>  <RI>
0

>  <Rbt.Current_Directory>
/home/fc/tossine/FB1_39/p3/3_clust03

>  <Rbt.Executable>
rbdock/0.1.0

>  <Rbt.Library>
librxdock.so/0.1.0

>  <Rbt.Parameter_File>
/cluster/rxdock/data/scripts/dock.prm

>  <Rbt.Receptor>
rx_4.prm

>  <SCORE>
41.5462

>  <SCORE.INTER>
22.1665

>  <SCORE.INTER.CONST>
1

>  <SCORE.INTER.POLAR>
-1.99487

>  <SCORE.INTER.REPUL>
1.55126

>  <SCORE.INTER.ROT>
32

>  <SCORE.INTER.VDW>
-16.2072

>  <SCORE.INTER.norm>
0.44333

>  <SCORE.INTRA>
16.6084

>  <SCORE.INTRA.DIHEDRAL>
26.8417

>  <SCORE.INTRA.DIHEDRAL.0>
47.3121

>  <SCORE.INTRA.POLAR>
0.800462

>  <SCORE.INTRA.POLAR.0>
-1.47808

>  <SCORE.INTRA.REPUL>
0

>  <SCORE.INTRA.REPUL.0>
0

>  <SCORE.INTRA.VDW>
0.465928

>  <SCORE.INTRA.VDW.0>
-2.78316

>  <SCORE.INTRA.norm>
0.332167

>  <SCORE.RESTR>
2.7714

>  <SCORE.RESTR.CAVITY>
2.7714

>  <SCORE.RESTR.norm>
0.0554279

>  <SCORE.SYSTEM>
0

>  <SCORE.SYSTEM.CONST>
0

>  <SCORE.SYSTEM.DIHEDRAL>
0

>  <SCORE.SYSTEM.norm>
0

>  <SCORE.heavy>
50

>  <SCORE.norm>
0.830925

$$$$
