FB1.pdb
  RxDock  09132006343D
librxdock.so/0.1.0
 59 58  0  0  0  0  0  0  0  0999 V2000
    0.9795    7.3480  -13.7893 C   0  0  0  0  0  0
    2.2136    6.5894  -13.3070 C   0  0  0  0  0  0
    1.8519    5.1923  -12.7765 C   0  0  0  0  0  0
    1.1189    5.2205  -11.4121 C   0  0  0  0  0  0
   -0.1112    4.2535  -11.3018 C   0  0  0  0  0  0
    0.4021    2.8631  -10.8615 C   0  0  0  0  0  0
   -1.2427    4.7776  -10.3205 C   0  0  0  0  0  0
   -2.5859    3.9091  -10.2320 C   0  0  0  0  0  0
   -4.0196    4.3884  -10.7249 C   0  0  0  0  0  0
   -4.0185    5.2948  -12.1033 C   0  0  0  0  0  0
   -3.2577    4.5306  -13.1856 C   0  0  0  0  0  0
   -5.4488    5.7292  -12.6603 C   0  0  0  0  0  0
   -6.7968    4.8518  -12.4823 C   0  0  0  0  0  0
   -8.2257    5.4954  -12.4939 C   0  0  0  0  0  0
   -9.4277    4.6829  -11.8273 C   0  0  0  0  0  0
   -9.5847    3.1127  -11.8957 C   0  0  0  0  0  0
   -9.8628    2.3148  -10.5944 C   0  0  0  0  0  0
   -9.9582    0.7463  -10.7353 C   0  0  0  0  0  0
  -10.0978   -0.0460   -9.4294 C   0  0  0  0  0  0
  -11.0699    0.4917   -8.3412 C   0  0  0  0  0  0
  -12.5507    0.8196   -8.6949 C   0  0  0  0  0  0
  -13.4404    1.2632   -7.5421 C   0  0  0  0  0  0
  -12.6239    1.7759   -9.8158 N   0  0  0  0  0  0
  -11.1454   -0.5718   -7.3578 O   0  0  0  0  0  0
  -11.0804    0.4454  -11.5720 O   0  0  0  0  0  0
   -6.7895    3.9345  -13.5892 O   0  0  0  0  0  0
   -2.3339    2.6930  -10.9870 O   0  0  0  0  0  0
   -2.9377    1.5581  -10.5479 C   0  0  0  0  0  0
   -3.9833    1.4923   -9.9299 O   0  0  0  0  0  0
   -2.1484    0.3773  -11.0419 C   0  0  0  0  0  0
   -1.8919   -0.6638   -9.9406 C   0  0  0  0  0  0
   -2.9991   -1.7227   -9.8622 C   0  0  0  0  0  0
   -3.0850   -2.3202   -8.4769 C   0  0  0  0  0  0
   -4.0108   -2.1057   -7.7019 O   0  0  0  0  0  0
   -2.0477   -3.1140   -8.1722 O   0  0  0  0  0  0
   -0.5535   -1.3283  -10.2917 C   0  0  0  0  0  0
   -0.2498   -2.4524   -9.9222 O   0  0  0  0  0  0
    0.2801   -0.5531  -10.9988 O   0  0  0  0  0  0
   -0.6892    5.0807   -8.9783 O   0  0  0  0  0  0
   -0.6504    6.4017   -8.5644 C   0  0  0  0  0  0
   -0.8211    6.7755   -7.4113 O   0  0  0  0  0  0
   -0.3651    7.3681   -9.7216 C   0  0  0  0  0  0
   -1.0513    8.7658   -9.6217 C   0  0  0  0  0  0
   -0.2289   10.0054  -10.0187 C   0  0  0  0  0  0
   -0.9150   11.2974   -9.6807 C   0  0  0  0  0  0
   -0.6791   11.9967   -8.7050 O   0  0  0  0  0  0
   -1.8373   11.6424  -10.5921 O   0  0  0  0  0  0
   -2.4003    8.8669  -10.3443 C   0  0  0  0  0  0
   -3.4134    9.2590   -9.7996 O   0  0  0  0  0  0
   -2.3720    8.5922  -11.6653 O   0  0  0  0  0  0
  -13.5996    2.0134   -9.9891 H   0  0  0  0  0  0
  -12.3121    1.3048  -10.6681 H   0  0  0  0  0  0
  -10.2631   -0.5754   -6.9302 H   0  0  0  0  0  0
  -11.0867   -0.5152  -11.7386 H   0  0  0  0  0  0
   -6.9552    4.4419  -14.4014 H   0  0  0  0  0  0
   -1.3991   -3.2460   -8.8900 H   0  0  0  0  0  0
    0.0987   -0.5361  -11.9712 H   0  0  0  0  0  0
   -2.3171   12.4160  -10.2279 H   0  0  0  0  0  0
   -1.5062    8.2804  -12.0107 H   0  0  0  0  0  0
  1  2  1  0  0  0
  2  3  1  0  0  0
  3  4  1  0  0  0
  4  5  1  0  0  0
  5  6  1  0  0  0
  5  7  1  0  0  0
  7  8  1  0  0  0
  7 39  1  0  0  0
  8  9  1  0  0  0
  8 27  1  0  0  0
  9 10  1  0  0  0
 10 11  1  0  0  0
 10 12  1  0  0  0
 12 13  1  0  0  0
 13 14  1  0  0  0
 13 26  1  0  0  0
 14 15  1  0  0  0
 15 16  1  0  0  0
 16 17  1  0  0  0
 17 18  1  0  0  0
 18 19  1  0  0  0
 18 25  1  0  0  0
 19 20  1  0  0  0
 20 21  1  0  0  0
 20 24  1  0  0  0
 21 22  1  0  0  0
 21 23  1  0  0  0
 23 51  1  0  0  0
 23 52  1  0  0  0
 24 53  1  0  0  0
 25 54  1  0  0  0
 26 55  1  0  0  0
 27 28  1  0  0  0
 28 29  2  0  0  0
 28 30  1  0  0  0
 30 31  1  0  0  0
 31 32  1  0  0  0
 31 36  1  0  0  0
 32 33  1  0  0  0
 33 34  2  0  0  0
 33 35  1  0  0  0
 35 56  1  0  0  0
 36 37  2  0  0  0
 36 38  1  0  0  0
 38 57  1  0  0  0
 39 40  1  0  0  0
 40 41  2  0  0  0
 40 42  1  0  0  0
 42 43  1  0  0  0
 43 44  1  0  0  0
 43 48  1  0  0  0
 44 45  1  0  0  0
 45 46  2  0  0  0
 45 47  1  0  0  0
 47 58  1  0  0  0
 48 49  2  0  0  0
 48 50  1  0  0  0
 50 59  1  0  0  0
M  END
>  <AUTHOR>
    GENERATED BY OPEN BABEL 2.4.1

>  <CHROM.1>
-72.16341709,136.25643501,86.33124536,175.45620717,-113.45060056,112.06543487
37.37413650,146.88801972,53.17074838,-30.92193285,154.58015197,-159.18711836
-70.12098544,-36.60945874,130.74858894,-177.97808419,174.29857850,42.87205315
174.07806644,52.98642132,176.58060972,69.86691975,-176.71547668,27.66490207
133.39834536,89.93265844,-154.40445175,-155.22630651,109.31009825,-3.20002818
-82.13075086,144.93629100,146.67701168,138.63348328,-171.04543922,126.89963099
99.99693542,171.98533355,5.09224132,-3.99328007,3.72571682,-10.43841350,-0.66659184
-0.03178618,3.02941058

>  <COMPND>
    UNNAMED

>  <MASTER>
        0    0    0    0    0    0    0    0  109    0  109    0

>  <Name>
FB1.pdb

>  <RI>
0

>  <Rbt.Current_Directory>
/home/fc/tossine/FB1_39/p3/3_clust03

>  <Rbt.Executable>
rbdock/0.1.0

>  <Rbt.Library>
librxdock.so/0.1.0

>  <Rbt.Parameter_File>
/cluster/rxdock/data/scripts/dock.prm

>  <Rbt.Receptor>
rx_4.prm

>  <SCORE>
34.9726

>  <SCORE.INTER>
6.60484

>  <SCORE.INTER.CONST>
1

>  <SCORE.INTER.POLAR>
-1.80544

>  <SCORE.INTER.REPUL>
0.496241

>  <SCORE.INTER.ROT>
32

>  <SCORE.INTER.VDW>
-27.1379

>  <SCORE.INTER.norm>
0.132097

>  <SCORE.INTRA>
27.4203

>  <SCORE.INTRA.DIHEDRAL>
51.9309

>  <SCORE.INTRA.DIHEDRAL.0>
47.3121

>  <SCORE.INTRA.POLAR>
-0.167309

>  <SCORE.INTRA.POLAR.0>
-1.47808

>  <SCORE.INTRA.REPUL>
0

>  <SCORE.INTRA.REPUL.0>
0

>  <SCORE.INTRA.VDW>
2.02366

>  <SCORE.INTRA.VDW.0>
-2.78316

>  <SCORE.INTRA.norm>
0.548406

>  <SCORE.RESTR>
0.947527

>  <SCORE.RESTR.CAVITY>
0.947527

>  <SCORE.RESTR.norm>
0.0189505

>  <SCORE.SYSTEM>
0

>  <SCORE.SYSTEM.CONST>
0

>  <SCORE.SYSTEM.DIHEDRAL>
0

>  <SCORE.SYSTEM.norm>
0

>  <SCORE.heavy>
50

>  <SCORE.norm>
0.699453

$$$$
