FB1.pdb
  RxDock  10072015093D
librxdock.so/0.1.0
 59 58  0  0  0  0  0  0  0  0999 V2000
    7.5579   -8.0262    2.4833 C   0  0  0  0  0  0
    6.9917   -7.1649    3.6097 C   0  0  0  0  0  0
    5.5115   -7.4819    3.8798 C   0  0  0  0  0  0
    4.6015   -7.2828    2.6421 C   0  0  0  0  0  0
    4.1649   -5.8004    2.3735 C   0  0  0  0  0  0
    5.3690   -5.0413    1.7698 C   0  0  0  0  0  0
    2.8888   -5.6756    1.4387 C   0  0  0  0  0  0
    2.0186   -4.3374    1.5733 C   0  0  0  0  0  0
    0.4324   -4.2651    1.4906 C   0  0  0  0  0  0
   -0.2293   -4.9453    0.1412 C   0  0  0  0  0  0
   -0.0827   -6.4627    0.2411 C   0  0  0  0  0  0
   -1.7513   -4.5735   -0.1594 C   0  0  0  0  0  0
   -2.2492   -3.7875   -1.4833 C   0  0  0  0  0  0
   -2.3119   -4.4709   -2.8923 C   0  0  0  0  0  0
   -2.1331   -3.5542   -4.1873 C   0  0  0  0  0  0
   -3.2232   -2.5410   -4.7161 C   0  0  0  0  0  0
   -3.6373   -2.5748   -6.2110 C   0  0  0  0  0  0
   -2.4754   -2.4303   -7.2684 C   0  0  0  0  0  0
   -2.8217   -2.8077   -8.7142 C   0  0  0  0  0  0
   -1.7389   -3.5262   -9.5683 C   0  0  0  0  0  0
   -1.9186   -3.6800  -11.1076 C   0  0  0  0  0  0
   -2.9884   -4.6592  -11.5703 C   0  0  0  0  0  0
   -2.0949   -2.3638  -11.7502 N   0  0  0  0  0  0
   -0.5469   -2.7154   -9.4086 O   0  0  0  0  0  0
   -2.0264   -1.0710   -7.2483 O   0  0  0  0  0  0
   -3.6025   -3.3979   -1.1948 O   0  0  0  0  0  0
    2.3370   -3.7749    2.8751 O   0  0  0  0  0  0
    2.0189   -2.4699    3.0778 C   0  0  0  0  0  0
    1.5197   -1.7163    2.2639 O   0  0  0  0  0  0
    2.2931   -2.1311    4.5170 C   0  0  0  0  0  0
    1.7759   -3.2067    5.4856 C   0  0  0  0  0  0
    1.7439   -2.7221    6.9407 C   0  0  0  0  0  0
    3.1191   -2.3034    7.4063 C   0  0  0  0  0  0
    3.8686   -3.0313    8.0484 O   0  0  0  0  0  0
    3.4470   -1.0533    7.0478 O   0  0  0  0  0  0
    0.3559   -3.5504    5.0150 C   0  0  0  0  0  0
   -0.2859   -2.8392    4.2569 O   0  0  0  0  0  0
   -0.1451   -4.6750    5.5443 O   0  0  0  0  0  0
    3.2282   -5.9764    0.0265 O   0  0  0  0  0  0
    3.7492   -7.2237   -0.2748 C   0  0  0  0  0  0
    4.9048   -7.4305   -0.6214 O   0  0  0  0  0  0
    2.7093   -8.3422   -0.1263 C   0  0  0  0  0  0
    1.7535   -8.5444   -1.3429 C   0  0  0  0  0  0
    2.3773   -8.9305   -2.6965 C   0  0  0  0  0  0
    3.2342   -7.8437   -3.2788 C   0  0  0  0  0  0
    4.3413   -7.9972   -3.7760 O   0  0  0  0  0  0
    2.6456   -6.6393   -3.2202 O   0  0  0  0  0  0
    0.5917   -9.5124   -1.0870 C   0  0  0  0  0  0
   -0.5600   -9.1442   -0.9659 O   0  0  0  0  0  0
    0.9135  -10.8228   -1.1104 O   0  0  0  0  0  0
   -2.9566   -1.9390  -11.4103 H   0  0  0  0  0  0
   -2.2486   -2.5069  -12.7509 H   0  0  0  0  0  0
   -0.7376   -1.8950   -9.9106 H   0  0  0  0  0  0
   -1.4766   -0.9440   -6.4532 H   0  0  0  0  0  0
   -3.5832   -2.7713   -0.4522 H   0  0  0  0  0  0
    2.8011   -0.6024    6.4707 H   0  0  0  0  0  0
   -1.0078   -4.9626    5.1549 H   0  0  0  0  0  0
    3.3663   -5.9753   -3.1878 H   0  0  0  0  0  0
    1.1038  -11.1923   -2.0012 H   0  0  0  0  0  0
  1  2  1  0  0  0
  2  3  1  0  0  0
  3  4  1  0  0  0
  4  5  1  0  0  0
  5  6  1  0  0  0
  5  7  1  0  0  0
  7  8  1  0  0  0
  7 39  1  0  0  0
  8  9  1  0  0  0
  8 27  1  0  0  0
  9 10  1  0  0  0
 10 11  1  0  0  0
 10 12  1  0  0  0
 12 13  1  0  0  0
 13 14  1  0  0  0
 13 26  1  0  0  0
 14 15  1  0  0  0
 15 16  1  0  0  0
 16 17  1  0  0  0
 17 18  1  0  0  0
 18 19  1  0  0  0
 18 25  1  0  0  0
 19 20  1  0  0  0
 20 21  1  0  0  0
 20 24  1  0  0  0
 21 22  1  0  0  0
 21 23  1  0  0  0
 23 51  1  0  0  0
 23 52  1  0  0  0
 24 53  1  0  0  0
 25 54  1  0  0  0
 26 55  1  0  0  0
 27 28  1  0  0  0
 28 29  2  0  0  0
 28 30  1  0  0  0
 30 31  1  0  0  0
 31 32  1  0  0  0
 31 36  1  0  0  0
 32 33  1  0  0  0
 33 34  2  0  0  0
 33 35  1  0  0  0
 35 56  1  0  0  0
 36 37  2  0  0  0
 36 38  1  0  0  0
 38 57  1  0  0  0
 39 40  1  0  0  0
 40 41  2  0  0  0
 40 42  1  0  0  0
 42 43  1  0  0  0
 43 44  1  0  0  0
 43 48  1  0  0  0
 44 45  1  0  0  0
 45 46  2  0  0  0
 45 47  1  0  0  0
 47 58  1  0  0  0
 48 49  2  0  0  0
 48 50  1  0  0  0
 50 59  1  0  0  0
M  END
>  <AUTHOR>
    GENERATED BY OPEN BABEL 2.4.1

>  <CHROM.1>
-58.36927857,-81.35286451,75.54715702,155.79471859,-142.16045322,59.44640434
-53.62416494,162.38941932,71.05127934,117.68072660,73.82072752,-151.60286159
64.36074412,-72.56777048,-129.93497148,-55.08479054,165.31945785,-142.77916704
76.19276719,-167.76483224,-70.98209694,-71.01364215,-63.77998036,-1.77288296
-44.84167374,-166.14813419,-58.93695061,-16.68779187,-97.16271637,-5.21256882
-172.32465450,-110.14377150,82.46361733,61.38556932,-66.46025364,108.14231757
134.88309880,152.78200847,-72.62816428,1.10112218,-4.91135346,-0.67219232
-0.96152776,0.83827542,-1.97340145

>  <COMPND>
    UNNAMED

>  <MASTER>
        0    0    0    0    0    0    0    0  109    0  109    0

>  <Name>
FB1.pdb

>  <RI>
0

>  <Rbt.Current_Directory>
/home/fc/tossine/FB1_39/p3/3_clust03

>  <Rbt.Executable>
rbdock/0.1.0

>  <Rbt.Library>
librxdock.so/0.1.0

>  <Rbt.Parameter_File>
/cluster/rxdock/data/scripts/dock.prm

>  <Rbt.Receptor>
rx_0.prm

>  <SCORE>
31.6404

>  <SCORE.INTER>
1.848

>  <SCORE.INTER.CONST>
1

>  <SCORE.INTER.POLAR>
-3.95199

>  <SCORE.INTER.REPUL>
0.86087

>  <SCORE.INTER.ROT>
32

>  <SCORE.INTER.VDW>
-26.4196

>  <SCORE.INTER.norm>
0.0369599

>  <SCORE.INTRA>
29.0906

>  <SCORE.INTRA.DIHEDRAL>
46.425

>  <SCORE.INTRA.DIHEDRAL.0>
47.3121

>  <SCORE.INTRA.POLAR>
1.34959

>  <SCORE.INTRA.POLAR.0>
-1.47808

>  <SCORE.INTRA.REPUL>
0

>  <SCORE.INTRA.REPUL.0>
0

>  <SCORE.INTRA.VDW>
1.28949

>  <SCORE.INTRA.VDW.0>
-2.78316

>  <SCORE.INTRA.norm>
0.581812

>  <SCORE.RESTR>
0.70186

>  <SCORE.RESTR.CAVITY>
0.70186

>  <SCORE.RESTR.norm>
0.0140372

>  <SCORE.SYSTEM>
0

>  <SCORE.SYSTEM.CONST>
0

>  <SCORE.SYSTEM.DIHEDRAL>
0

>  <SCORE.SYSTEM.norm>
0

>  <SCORE.heavy>
50

>  <SCORE.norm>
0.632809

$$$$
