FB1.pdb
  RxDock  10072017033D
librxdock.so/0.1.0
 59 58  0  0  0  0  0  0  0  0999 V2000
    3.6559    7.0735  -15.9355 C   0  0  0  0  0  0
    4.0959    6.7090  -14.5196 C   0  0  0  0  0  0
    3.1777    5.6462  -13.8938 C   0  0  0  0  0  0
    1.7230    6.1345  -13.6816 C   0  0  0  0  0  0
    0.7279    5.0411  -13.1575 C   0  0  0  0  0  0
    0.9657    4.8550  -11.6411 C   0  0  0  0  0  0
   -0.7943    5.3746  -13.4565 C   0  0  0  0  0  0
   -1.8253    4.1489  -13.4268 C   0  0  0  0  0  0
   -1.4478    2.6440  -13.0788 C   0  0  0  0  0  0
   -2.6446    1.5418  -13.3509 C   0  0  0  0  0  0
   -2.0375    0.1412  -13.2886 C   0  0  0  0  0  0
   -3.9075    1.6210  -12.3795 C   0  0  0  0  0  0
   -3.8288    1.4472  -10.7725 C   0  0  0  0  0  0
   -2.8407    2.2789   -9.8849 C   0  0  0  0  0  0
   -1.2723    2.0900  -10.1167 C   0  0  0  0  0  0
   -0.4116    0.9333   -9.4719 C   0  0  0  0  0  0
   -0.4626   -0.4908  -10.0855 C   0  0  0  0  0  0
   -1.4474   -1.5179   -9.4040 C   0  0  0  0  0  0
   -1.8020   -1.2477   -7.9364 C   0  0  0  0  0  0
   -2.8522   -2.1668   -7.2504 C   0  0  0  0  0  0
   -2.9478   -2.2374   -5.6976 C   0  0  0  0  0  0
   -4.0054   -3.1711   -5.1257 C   0  0  0  0  0  0
   -1.6261   -2.5097   -5.1015 N   0  0  0  0  0  0
   -4.1350   -1.6453   -7.6822 O   0  0  0  0  0  0
   -2.6583   -1.5419  -10.1675 O   0  0  0  0  0  0
   -5.1411    1.7935  -10.2987 O   0  0  0  0  0  0
   -2.8446    4.4988  -12.4516 O   0  0  0  0  0  0
   -4.1199    4.6116  -12.9058 C   0  0  0  0  0  0
   -4.4758    4.5718  -14.0682 O   0  0  0  0  0  0
   -5.0418    4.6934  -11.7205 C   0  0  0  0  0  0
   -6.4165    5.2785  -12.0811 C   0  0  0  0  0  0
   -6.3141    6.6629  -12.7341 C   0  0  0  0  0  0
   -5.7820    7.6875  -11.7591 C   0  0  0  0  0  0
   -4.8088    8.3982  -11.9858 O   0  0  0  0  0  0
   -6.4793    7.7489  -10.6150 O   0  0  0  0  0  0
   -7.0556    4.2827  -13.0587 C   0  0  0  0  0  0
   -6.5700    3.1904  -13.3106 O   0  0  0  0  0  0
   -8.1695    4.7301  -13.6547 O   0  0  0  0  0  0
   -1.2646    6.5145  -12.6323 O   0  0  0  0  0  0
   -1.0542    7.7997  -13.1036 C   0  0  0  0  0  0
   -0.2224    8.1041  -13.9485 O   0  0  0  0  0  0
   -1.9893    8.8231  -12.4460 C   0  0  0  0  0  0
   -1.3371    9.7398  -11.3648 C   0  0  0  0  0  0
   -1.9166   11.1528  -11.1694 C   0  0  0  0  0  0
   -1.8517   11.9907  -12.4137 C   0  0  0  0  0  0
   -1.2108   11.7238  -13.4210 O   0  0  0  0  0  0
   -2.6059   13.0970  -12.3273 O   0  0  0  0  0  0
   -1.2196    9.1023   -9.9749 C   0  0  0  0  0  0
   -2.0829    9.2058   -9.1259 O   0  0  0  0  0  0
   -0.1353    8.3215   -9.7854 O   0  0  0  0  0  0
   -0.9774   -1.7736   -5.3770 H   0  0  0  0  0  0
   -1.2489   -3.3632   -5.5195 H   0  0  0  0  0  0
   -4.7864   -2.3148   -7.3843 H   0  0  0  0  0  0
   -2.9527   -0.6220  -10.2999 H   0  0  0  0  0  0
   -5.7639    1.1195  -10.6185 H   0  0  0  0  0  0
   -6.1793    8.4275   -9.9802 H   0  0  0  0  0  0
   -8.6093    4.0723  -14.2486 H   0  0  0  0  0  0
   -2.9950   13.1026  -11.4274 H   0  0  0  0  0  0
    0.4834    8.2704  -10.5475 H   0  0  0  0  0  0
  1  2  1  0  0  0
  2  3  1  0  0  0
  3  4  1  0  0  0
  4  5  1  0  0  0
  5  6  1  0  0  0
  5  7  1  0  0  0
  7  8  1  0  0  0
  7 39  1  0  0  0
  8  9  1  0  0  0
  8 27  1  0  0  0
  9 10  1  0  0  0
 10 11  1  0  0  0
 10 12  1  0  0  0
 12 13  1  0  0  0
 13 14  1  0  0  0
 13 26  1  0  0  0
 14 15  1  0  0  0
 15 16  1  0  0  0
 16 17  1  0  0  0
 17 18  1  0  0  0
 18 19  1  0  0  0
 18 25  1  0  0  0
 19 20  1  0  0  0
 20 21  1  0  0  0
 20 24  1  0  0  0
 21 22  1  0  0  0
 21 23  1  0  0  0
 23 51  1  0  0  0
 23 52  1  0  0  0
 24 53  1  0  0  0
 25 54  1  0  0  0
 26 55  1  0  0  0
 27 28  1  0  0  0
 28 29  2  0  0  0
 28 30  1  0  0  0
 30 31  1  0  0  0
 31 32  1  0  0  0
 31 36  1  0  0  0
 32 33  1  0  0  0
 33 34  2  0  0  0
 33 35  1  0  0  0
 35 56  1  0  0  0
 36 37  2  0  0  0
 36 38  1  0  0  0
 38 57  1  0  0  0
 39 40  1  0  0  0
 40 41  2  0  0  0
 40 42  1  0  0  0
 42 43  1  0  0  0
 43 44  1  0  0  0
 43 48  1  0  0  0
 44 45  1  0  0  0
 45 46  2  0  0  0
 45 47  1  0  0  0
 47 58  1  0  0  0
 48 49  2  0  0  0
 48 50  1  0  0  0
 50 59  1  0  0  0
M  END
>  <AUTHOR>
    GENERATED BY OPEN BABEL 2.4.1

>  <CHROM.1>
-64.52243868,175.09829516,77.90180986,159.78283872,1.98895664,85.92256458
-170.77624341,118.44336220,166.85207530,-59.74287557,52.17791785,-62.94537294
66.73317721,-83.63556427,78.48891168,-96.83325028,-24.34200448,175.40630810
-50.01538994,161.54525116,-179.77150603,170.18420582,58.73742672,-7.37377615
161.01251591,-56.16374627,-66.27136248,8.04618964,125.86214973,-177.68646105
-176.92520607,-20.24849761,104.43666191,150.47187147,-59.55126508,-90.84889084
-12.59440832,2.44937148,2.20726777,-2.40765498,4.49809317,-11.43677144,-1.43713238
-0.11975509,2.76840490

>  <COMPND>
    UNNAMED

>  <MASTER>
        0    0    0    0    0    0    0    0  109    0  109    0

>  <Name>
FB1.pdb

>  <RI>
0

>  <Rbt.Current_Directory>
/home/fc/tossine/FB1_39/p3/3_clust03

>  <Rbt.Executable>
rbdock/0.1.0

>  <Rbt.Library>
librxdock.so/0.1.0

>  <Rbt.Parameter_File>
/cluster/rxdock/data/scripts/dock.prm

>  <Rbt.Receptor>
rx_2.prm

>  <SCORE>
9.72979

>  <SCORE.INTER>
2.87135

>  <SCORE.INTER.CONST>
1

>  <SCORE.INTER.POLAR>
-1.69672

>  <SCORE.INTER.REPUL>
0.181423

>  <SCORE.INTER.ROT>
32

>  <SCORE.INTER.VDW>
-29.6669

>  <SCORE.INTER.norm>
0.0574269

>  <SCORE.INTRA>
6.74181

>  <SCORE.INTRA.DIHEDRAL>
3.16321

>  <SCORE.INTRA.DIHEDRAL.0>
47.3121

>  <SCORE.INTRA.POLAR>
1.47808

>  <SCORE.INTRA.POLAR.0>
-1.47808

>  <SCORE.INTRA.REPUL>
0

>  <SCORE.INTRA.REPUL.0>
0

>  <SCORE.INTRA.VDW>
0.134745

>  <SCORE.INTRA.VDW.0>
-2.78316

>  <SCORE.INTRA.norm>
0.134836

>  <SCORE.RESTR>
0.116633

>  <SCORE.RESTR.CAVITY>
0.116633

>  <SCORE.RESTR.norm>
0.00233265

>  <SCORE.SYSTEM>
0

>  <SCORE.SYSTEM.CONST>
0

>  <SCORE.SYSTEM.DIHEDRAL>
0

>  <SCORE.SYSTEM.norm>
0

>  <SCORE.heavy>
50

>  <SCORE.norm>
0.194596

$$$$
