FB1.pdb
  RxDock  10072016083D
librxdock.so/0.1.0
 59 58  0  0  0  0  0  0  0  0999 V2000
   -7.0499    8.4952  -13.4303 C   0  0  0  0  0  0
   -6.9775    8.7356  -11.9242 C   0  0  0  0  0  0
   -7.2182    7.4418  -11.1289 C   0  0  0  0  0  0
   -6.1797    6.3316  -11.4265 C   0  0  0  0  0  0
   -6.1176    5.1812  -10.3620 C   0  0  0  0  0  0
   -7.3697    4.2909  -10.5357 C   0  0  0  0  0  0
   -4.7902    4.3155  -10.4420 C   0  0  0  0  0  0
   -3.4281    5.0330   -9.9992 C   0  0  0  0  0  0
   -1.9701    4.4304  -10.1975 C   0  0  0  0  0  0
   -0.7661    5.5478  -10.3502 C   0  0  0  0  0  0
   -0.6639    6.3324   -9.0432 C   0  0  0  0  0  0
    0.6714    4.9826  -10.7486 C   0  0  0  0  0  0
    1.8851    5.8983  -11.3025 C   0  0  0  0  0  0
    2.1257    6.1387  -12.8324 C   0  0  0  0  0  0
    3.6148    6.4318  -13.3281 C   0  0  0  0  0  0
    4.1021    6.2706  -14.8218 C   0  0  0  0  0  0
    5.5662    5.8427  -15.1064 C   0  0  0  0  0  0
    6.5777    6.9943  -15.4804 C   0  0  0  0  0  0
    6.8961    8.0054  -14.3719 C   0  0  0  0  0  0
    8.0100    7.6493  -13.3469 C   0  0  0  0  0  0
    9.4600    8.1852  -13.5358 C   0  0  0  0  0  0
    9.6523    9.6876  -13.3834 C   0  0  0  0  0  0
   10.4096    7.4431  -12.6849 N   0  0  0  0  0  0
    7.5565    8.2265  -12.0959 O   0  0  0  0  0  0
    7.8017    6.3859  -15.9064 O   0  0  0  0  0  0
    1.6446    7.2038  -10.7508 O   0  0  0  0  0  0
   -3.3909    6.3040  -10.7033 O   0  0  0  0  0  0
   -3.2355    6.2578  -12.0520 C   0  0  0  0  0  0
   -2.9500    5.2755  -12.7100 O   0  0  0  0  0  0
   -3.5760    7.6092  -12.6169 C   0  0  0  0  0  0
   -2.6970    8.7295  -12.0382 C   0  0  0  0  0  0
   -2.8950    8.9123  -10.5279 C   0  0  0  0  0  0
   -3.4966   10.2630  -10.2166 C   0  0  0  0  0  0
   -3.1284   10.9712   -9.2857 O   0  0  0  0  0  0
   -4.4767   10.6188  -11.0602 O   0  0  0  0  0  0
   -1.2466    8.3222  -12.3323 C   0  0  0  0  0  0
   -0.3127    8.6035  -11.5967 O   0  0  0  0  0  0
   -1.0791    7.6723  -13.4922 O   0  0  0  0  0  0
   -4.9666    3.0020   -9.7759 O   0  0  0  0  0  0
   -4.1169    1.9660  -10.1262 C   0  0  0  0  0  0
   -3.8600    1.0048   -9.4131 O   0  0  0  0  0  0
   -3.5192    2.1495  -11.5274 C   0  0  0  0  0  0
   -2.6409    0.9701  -12.0489 C   0  0  0  0  0  0
   -3.1956    0.1082  -13.1978 C   0  0  0  0  0  0
   -4.5298   -0.5033  -12.8810 C   0  0  0  0  0  0
   -5.6168    0.0364  -13.0353 O   0  0  0  0  0  0
   -4.4218   -1.7552  -12.4106 O   0  0  0  0  0  0
   -1.2073    1.3617  -12.4279 C   0  0  0  0  0  0
   -0.8017    1.3541  -13.5734 O   0  0  0  0  0  0
   -0.4452    1.8225  -11.4139 O   0  0  0  0  0  0
   11.3586    7.6175  -13.0128 H   0  0  0  0  0  0
   10.2616    6.4414  -12.8272 H   0  0  0  0  0  0
    7.8434    7.5866  -11.4106 H   0  0  0  0  0  0
    8.4614    7.0912  -16.0403 H   0  0  0  0  0  0
    2.3464    7.7976  -11.0663 H   0  0  0  0  0  0
   -4.7439    9.9325  -11.7014 H   0  0  0  0  0  0
   -0.1399    7.4419  -13.7012 H   0  0  0  0  0  0
   -4.6039   -2.3556  -13.1641 H   0  0  0  0  0  0
    0.4965    1.9908  -11.6396 H   0  0  0  0  0  0
  1  2  1  0  0  0
  2  3  1  0  0  0
  3  4  1  0  0  0
  4  5  1  0  0  0
  5  6  1  0  0  0
  5  7  1  0  0  0
  7  8  1  0  0  0
  7 39  1  0  0  0
  8  9  1  0  0  0
  8 27  1  0  0  0
  9 10  1  0  0  0
 10 11  1  0  0  0
 10 12  1  0  0  0
 12 13  1  0  0  0
 13 14  1  0  0  0
 13 26  1  0  0  0
 14 15  1  0  0  0
 15 16  1  0  0  0
 16 17  1  0  0  0
 17 18  1  0  0  0
 18 19  1  0  0  0
 18 25  1  0  0  0
 19 20  1  0  0  0
 20 21  1  0  0  0
 20 24  1  0  0  0
 21 22  1  0  0  0
 21 23  1  0  0  0
 23 51  1  0  0  0
 23 52  1  0  0  0
 24 53  1  0  0  0
 25 54  1  0  0  0
 26 55  1  0  0  0
 27 28  1  0  0  0
 28 29  2  0  0  0
 28 30  1  0  0  0
 30 31  1  0  0  0
 31 32  1  0  0  0
 31 36  1  0  0  0
 32 33  1  0  0  0
 33 34  2  0  0  0
 33 35  1  0  0  0
 35 56  1  0  0  0
 36 37  2  0  0  0
 36 38  1  0  0  0
 38 57  1  0  0  0
 39 40  1  0  0  0
 40 41  2  0  0  0
 40 42  1  0  0  0
 42 43  1  0  0  0
 43 44  1  0  0  0
 43 48  1  0  0  0
 44 45  1  0  0  0
 45 46  2  0  0  0
 45 47  1  0  0  0
 47 58  1  0  0  0
 48 49  2  0  0  0
 48 50  1  0  0  0
 50 59  1  0  0  0
M  END
>  <AUTHOR>
    GENERATED BY OPEN BABEL 2.4.1

>  <CHROM.1>
60.60023324,162.66566504,73.73591644,69.36510837,-170.66221380,158.35057191
152.06383995,-68.08060708,64.14121664,164.23248072,-92.21908716,-151.87820793
-179.29280313,160.96702008,-147.86572105,-99.40033828,66.74887039,84.60869233
-173.61469934,96.93018137,67.45848698,143.84978100,163.91307390,-10.33003841
58.71726210,-63.46548089,-114.92906382,-147.79692437,-138.05077179,6.30354876
177.59960644,156.09319685,-175.21701554,109.86120913,-56.67905297,-111.65751707
85.35293009,-99.26641184,174.35358579,-0.71795193,5.65578565,-11.98688420
2.89700247,-0.21605455,-3.03118062

>  <COMPND>
    UNNAMED

>  <MASTER>
        0    0    0    0    0    0    0    0  109    0  109    0

>  <Name>
FB1.pdb

>  <RI>
0

>  <Rbt.Current_Directory>
/home/fc/tossine/FB1_39/p3/3_clust03

>  <Rbt.Executable>
rbdock/0.1.0

>  <Rbt.Library>
librxdock.so/0.1.0

>  <Rbt.Parameter_File>
/cluster/rxdock/data/scripts/dock.prm

>  <Rbt.Receptor>
rx_1.prm

>  <SCORE>
28.3103

>  <SCORE.INTER>
-0.362037

>  <SCORE.INTER.CONST>
1

>  <SCORE.INTER.POLAR>
-2.82651

>  <SCORE.INTER.REPUL>
0.170194

>  <SCORE.INTER.ROT>
32

>  <SCORE.INTER.VDW>
-29.0029

>  <SCORE.INTER.norm>
-0.00724074

>  <SCORE.INTRA>
27.8814

>  <SCORE.INTRA.DIHEDRAL>
36.7533

>  <SCORE.INTRA.DIHEDRAL.0>
47.3121

>  <SCORE.INTRA.POLAR>
1.47808

>  <SCORE.INTRA.POLAR.0>
-1.47808

>  <SCORE.INTRA.REPUL>
0.054309

>  <SCORE.INTRA.REPUL.0>
0

>  <SCORE.INTRA.VDW>
4.20778

>  <SCORE.INTRA.VDW.0>
-2.78316

>  <SCORE.INTRA.norm>
0.557628

>  <SCORE.RESTR>
0.790966

>  <SCORE.RESTR.CAVITY>
0.790966

>  <SCORE.RESTR.norm>
0.0158193

>  <SCORE.SYSTEM>
0

>  <SCORE.SYSTEM.CONST>
0

>  <SCORE.SYSTEM.DIHEDRAL>
0

>  <SCORE.SYSTEM.norm>
0

>  <SCORE.heavy>
50

>  <SCORE.norm>
0.566207

$$$$
