FB1.pdb
  RxDock  10072017433D
librxdock.so/0.1.0
 59 58  0  0  0  0  0  0  0  0999 V2000
   -1.5433   10.6884  -11.4649 C   0  0  0  0  0  0
   -1.4370   10.5983   -9.9444 C   0  0  0  0  0  0
   -2.4905    9.6457   -9.3554 C   0  0  0  0  0  0
   -2.3771    8.1950   -9.8868 C   0  0  0  0  0  0
   -1.0735    7.4341   -9.4600 C   0  0  0  0  0  0
   -1.2126    7.0279   -7.9747 C   0  0  0  0  0  0
   -0.7519    6.1716  -10.3658 C   0  0  0  0  0  0
   -1.8756    5.0329  -10.4490 C   0  0  0  0  0  0
   -1.6152    3.4752  -10.2651 C   0  0  0  0  0  0
   -0.8297    2.7446  -11.5183 C   0  0  0  0  0  0
    0.5658    3.3550  -11.6380 C   0  0  0  0  0  0
   -0.7137    1.1553  -11.4446 C   0  0  0  0  0  0
   -1.9142    0.1786  -10.9717 C   0  0  0  0  0  0
   -3.1428   -0.1471  -11.8885 C   0  0  0  0  0  0
   -4.5458   -0.4578  -11.1926 C   0  0  0  0  0  0
   -5.7985   -1.0558  -11.9462 C   0  0  0  0  0  0
   -6.5104   -0.2110  -13.0356 C   0  0  0  0  0  0
   -7.9201    0.3869  -12.6556 C   0  0  0  0  0  0
   -7.9097    1.6791  -11.8294 C   0  0  0  0  0  0
   -7.6722    3.0258  -12.5698 C   0  0  0  0  0  0
   -7.9827    4.3806  -11.8672 C   0  0  0  0  0  0
   -7.5244    4.5148  -10.4217 C   0  0  0  0  0  0
   -7.5047    5.5155  -12.6795 N   0  0  0  0  0  0
   -6.2456    3.0559  -12.8296 O   0  0  0  0  0  0
   -8.6390    0.6293  -13.8698 O   0  0  0  0  0  0
   -1.2835   -1.0894  -10.7250 O   0  0  0  0  0  0
   -2.8583    5.3564   -9.4281 O   0  0  0  0  0  0
   -4.1501    5.0270   -9.6889 C   0  0  0  0  0  0
   -5.0302    4.8602   -8.8661 O   0  0  0  0  0  0
   -4.3428    5.0006  -11.1801 C   0  0  0  0  0  0
   -3.8460    6.2851  -11.8624 C   0  0  0  0  0  0
   -3.3976    6.0471  -13.3101 C   0  0  0  0  0  0
   -3.9465    4.7442  -13.8435 C   0  0  0  0  0  0
   -4.9731    4.6625  -14.5091 O   0  0  0  0  0  0
   -3.2000    3.6777  -13.5203 O   0  0  0  0  0  0
   -5.0288    7.2629  -11.8329 C   0  0  0  0  0  0
   -5.2705    8.0448  -12.7399 O   0  0  0  0  0  0
   -5.7504    7.2242  -10.7043 O   0  0  0  0  0  0
   -0.2796    6.5835  -11.7101 O   0  0  0  0  0  0
    0.8522    7.3770  -11.7965 C   0  0  0  0  0  0
    1.4171    7.8907  -10.8398 O   0  0  0  0  0  0
    1.3355    7.5492  -13.2426 C   0  0  0  0  0  0
    2.6538    8.3640  -13.4237 C   0  0  0  0  0  0
    3.5745    7.9976  -14.6020 C   0  0  0  0  0  0
    3.9044    6.5338  -14.6555 C   0  0  0  0  0  0
    3.7510    5.7339  -13.7426 O   0  0  0  0  0  0
    4.3860    6.1596  -15.8506 O   0  0  0  0  0  0
    2.4639    9.8856  -13.4534 C   0  0  0  0  0  0
    2.9859   10.6320  -12.6489 O   0  0  0  0  0  0
    1.7603   10.3613  -14.5022 O   0  0  0  0  0  0
   -7.7391    5.3487  -13.6572 H   0  0  0  0  0  0
   -6.4826    5.5290  -12.6524 H   0  0  0  0  0  0
   -5.8386    3.2211  -11.9530 H   0  0  0  0  0  0
   -8.0279    1.0416  -14.5079 H   0  0  0  0  0  0
   -0.5755   -0.9515  -10.0738 H   0  0  0  0  0  0
   -3.4806    2.8347  -13.9254 H   0  0  0  0  0  0
   -6.6133    7.7056  -10.7526 H   0  0  0  0  0  0
    4.3430    5.1804  -15.8772 H   0  0  0  0  0  0
    1.6806   11.3401  -14.5447 H   0  0  0  0  0  0
  1  2  1  0  0  0
  2  3  1  0  0  0
  3  4  1  0  0  0
  4  5  1  0  0  0
  5  6  1  0  0  0
  5  7  1  0  0  0
  7  8  1  0  0  0
  7 39  1  0  0  0
  8  9  1  0  0  0
  8 27  1  0  0  0
  9 10  1  0  0  0
 10 11  1  0  0  0
 10 12  1  0  0  0
 12 13  1  0  0  0
 13 14  1  0  0  0
 13 26  1  0  0  0
 14 15  1  0  0  0
 15 16  1  0  0  0
 16 17  1  0  0  0
 17 18  1  0  0  0
 18 19  1  0  0  0
 18 25  1  0  0  0
 19 20  1  0  0  0
 20 21  1  0  0  0
 20 24  1  0  0  0
 21 22  1  0  0  0
 21 23  1  0  0  0
 23 51  1  0  0  0
 23 52  1  0  0  0
 24 53  1  0  0  0
 25 54  1  0  0  0
 26 55  1  0  0  0
 27 28  1  0  0  0
 28 29  2  0  0  0
 28 30  1  0  0  0
 30 31  1  0  0  0
 31 32  1  0  0  0
 31 36  1  0  0  0
 32 33  1  0  0  0
 33 34  2  0  0  0
 33 35  1  0  0  0
 35 56  1  0  0  0
 36 37  2  0  0  0
 36 38  1  0  0  0
 38 57  1  0  0  0
 39 40  1  0  0  0
 40 41  2  0  0  0
 40 42  1  0  0  0
 42 43  1  0  0  0
 43 44  1  0  0  0
 43 48  1  0  0  0
 44 45  1  0  0  0
 45 46  2  0  0  0
 45 47  1  0  0  0
 47 58  1  0  0  0
 48 49  2  0  0  0
 48 50  1  0  0  0
 50 59  1  0  0  0
M  END
>  <AUTHOR>
    GENERATED BY OPEN BABEL 2.4.1

>  <CHROM.1>
59.77668947,66.40869324,75.01929270,-58.00739113,-131.79897631,58.67266752
-72.41216193,147.62480849,63.32487584,41.66614700,75.27581706,-149.81956016
56.30205082,-168.30363523,-66.56875312,-107.17898339,81.33768696,80.30379894
-43.67741234,165.33605785,43.88523029,-72.58916139,42.96337736,157.82290767
-51.40606620,152.11643043,17.87189397,-143.85552897,95.78700217,-174.15250222
-167.77764266,-8.39353601,-176.69021420,148.62885931,-51.77037876,119.92493880
-16.11247251,-165.06102302,-176.89430388,-2.46778575,5.18326542,-11.90752305
0.65964261,0.20638871,0.14898158

>  <COMPND>
    UNNAMED

>  <MASTER>
        0    0    0    0    0    0    0    0  109    0  109    0

>  <Name>
FB1.pdb

>  <RI>
0

>  <Rbt.Current_Directory>
/home/fc/tossine/FB1_39/p3/3_clust03

>  <Rbt.Executable>
rbdock/0.1.0

>  <Rbt.Library>
librxdock.so/0.1.0

>  <Rbt.Parameter_File>
/cluster/rxdock/data/scripts/dock.prm

>  <Rbt.Receptor>
rx_3.prm

>  <SCORE>
26.5296

>  <SCORE.INTER>
9.89328

>  <SCORE.INTER.CONST>
1

>  <SCORE.INTER.POLAR>
-2.75682

>  <SCORE.INTER.REPUL>
0.938528

>  <SCORE.INTER.ROT>
32

>  <SCORE.INTER.VDW>
-22.8262

>  <SCORE.INTER.norm>
0.197866

>  <SCORE.INTRA>
15.1946

>  <SCORE.INTRA.DIHEDRAL>
7.95473

>  <SCORE.INTRA.DIHEDRAL.0>
47.3121

>  <SCORE.INTRA.POLAR>
1.47808

>  <SCORE.INTRA.POLAR.0>
-1.47808

>  <SCORE.INTRA.REPUL>
0

>  <SCORE.INTRA.REPUL.0>
0

>  <SCORE.INTRA.VDW>
6.19175

>  <SCORE.INTRA.VDW.0>
-2.78316

>  <SCORE.INTRA.norm>
0.303892

>  <SCORE.RESTR>
1.44172

>  <SCORE.RESTR.CAVITY>
1.44172

>  <SCORE.RESTR.norm>
0.0288345

>  <SCORE.SYSTEM>
0

>  <SCORE.SYSTEM.CONST>
0

>  <SCORE.SYSTEM.DIHEDRAL>
0

>  <SCORE.SYSTEM.norm>
0

>  <SCORE.heavy>
50

>  <SCORE.norm>
0.530592

$$$$
