FB1.pdb
  RxDock  10072017093D
librxdock.so/0.1.0
 59 58  0  0  0  0  0  0  0  0999 V2000
    4.4556    7.0711  -16.0352 C   0  0  0  0  0  0
    4.6491    6.5233  -14.6232 C   0  0  0  0  0  0
    3.4187    5.7349  -14.1448 C   0  0  0  0  0  0
    2.1270    6.5874  -14.0772 C   0  0  0  0  0  0
    1.3937    6.5684  -12.6907 C   0  0  0  0  0  0
    2.2435    7.3738  -11.6809 C   0  0  0  0  0  0
   -0.0916    7.1234  -12.7523 C   0  0  0  0  0  0
   -1.2589    6.1247  -12.2985 C   0  0  0  0  0  0
   -1.2958    5.3241  -10.9252 C   0  0  0  0  0  0
   -1.1668    3.6856  -11.0671 C   0  0  0  0  0  0
    0.1987    3.3568  -11.6683 C   0  0  0  0  0  0
   -1.3779    2.8451   -9.7278 C   0  0  0  0  0  0
   -1.5856    1.2408   -9.6862 C   0  0  0  0  0  0
   -0.4125    0.2497   -9.3738 C   0  0  0  0  0  0
   -0.6619   -1.3121   -9.5930 C   0  0  0  0  0  0
   -1.4279   -2.2416   -8.5713 C   0  0  0  0  0  0
   -2.8572   -1.8541   -8.1084 C   0  0  0  0  0  0
   -3.4440   -2.6570   -6.8835 C   0  0  0  0  0  0
   -4.8017   -2.1842   -6.3490 C   0  0  0  0  0  0
   -5.3367   -2.8166   -5.0329 C   0  0  0  0  0  0
   -6.4438   -3.9111   -5.0738 C   0  0  0  0  0  0
   -6.2370   -5.0472   -6.0657 C   0  0  0  0  0  0
   -6.7153   -4.4347   -3.7215 N   0  0  0  0  0  0
   -4.1837   -3.4706   -4.4441 O   0  0  0  0  0  0
   -3.5608   -4.0303   -7.2707 O   0  0  0  0  0  0
   -2.5510    1.0200   -8.6442 O   0  0  0  0  0  0
   -2.4836    6.9074  -12.2916 O   0  0  0  0  0  0
   -3.6547    6.2202  -12.2526 C   0  0  0  0  0  0
   -3.7816    5.0116  -12.3027 O   0  0  0  0  0  0
   -4.7743    7.1999  -12.0334 C   0  0  0  0  0  0
   -6.0785    6.5167  -11.5917 C   0  0  0  0  0  0
   -5.9298    5.7694  -10.2602 C   0  0  0  0  0  0
   -7.1541    4.9347   -9.9639 C   0  0  0  0  0  0
   -7.2560    3.7500  -10.2633 O   0  0  0  0  0  0
   -8.1254    5.6147   -9.3370 O   0  0  0  0  0  0
   -7.1159    7.6391  -11.4510 C   0  0  0  0  0  0
   -7.9942    7.8427  -12.2754 O   0  0  0  0  0  0
   -6.9500    8.4133  -10.3698 O   0  0  0  0  0  0
   -0.1986    8.4421  -12.0819 O   0  0  0  0  0  0
   -0.5366    9.5454  -12.8478 C   0  0  0  0  0  0
    0.1572   10.0111  -13.7423 O   0  0  0  0  0  0
   -1.8969   10.1354  -12.4533 C   0  0  0  0  0  0
   -1.8800   11.1348  -11.2552 C   0  0  0  0  0  0
   -3.2229   11.7223  -10.7843 C   0  0  0  0  0  0
   -4.2818   10.6770  -10.5822 C   0  0  0  0  0  0
   -5.3381   10.6037  -11.1948 O   0  0  0  0  0  0
   -3.9450    9.7803   -9.6426 O   0  0  0  0  0  0
   -1.1473   10.6235  -10.0087 C   0  0  0  0  0  0
   -0.0942   10.0196  -10.0630 O   0  0  0  0  0  0
   -1.6941   10.9810   -8.8278 O   0  0  0  0  0  0
   -6.6595   -3.6702   -3.0499 H   0  0  0  0  0  0
   -5.9591   -5.0711   -3.4597 H   0  0  0  0  0  0
   -4.4422   -3.6347   -3.5126 H   0  0  0  0  0  0
   -2.6625   -4.3922   -7.3830 H   0  0  0  0  0  0
   -3.4289    1.2454   -8.9949 H   0  0  0  0  0  0
   -8.9662    5.1312   -9.2239 H   0  0  0  0  0  0
   -7.6250    9.1298  -10.2710 H   0  0  0  0  0  0
   -3.6441    8.9762  -10.1161 H   0  0  0  0  0  0
   -1.5156   10.3684   -8.0801 H   0  0  0  0  0  0
  1  2  1  0  0  0
  2  3  1  0  0  0
  3  4  1  0  0  0
  4  5  1  0  0  0
  5  6  1  0  0  0
  5  7  1  0  0  0
  7  8  1  0  0  0
  7 39  1  0  0  0
  8  9  1  0  0  0
  8 27  1  0  0  0
  9 10  1  0  0  0
 10 11  1  0  0  0
 10 12  1  0  0  0
 12 13  1  0  0  0
 13 14  1  0  0  0
 13 26  1  0  0  0
 14 15  1  0  0  0
 15 16  1  0  0  0
 16 17  1  0  0  0
 17 18  1  0  0  0
 18 19  1  0  0  0
 18 25  1  0  0  0
 19 20  1  0  0  0
 20 21  1  0  0  0
 20 24  1  0  0  0
 21 22  1  0  0  0
 21 23  1  0  0  0
 23 51  1  0  0  0
 23 52  1  0  0  0
 24 53  1  0  0  0
 25 54  1  0  0  0
 26 55  1  0  0  0
 27 28  1  0  0  0
 28 29  2  0  0  0
 28 30  1  0  0  0
 30 31  1  0  0  0
 31 32  1  0  0  0
 31 36  1  0  0  0
 32 33  1  0  0  0
 33 34  2  0  0  0
 33 35  1  0  0  0
 35 56  1  0  0  0
 36 37  2  0  0  0
 36 38  1  0  0  0
 38 57  1  0  0  0
 39 40  1  0  0  0
 40 41  2  0  0  0
 40 42  1  0  0  0
 42 43  1  0  0  0
 43 44  1  0  0  0
 43 48  1  0  0  0
 44 45  1  0  0  0
 45 46  2  0  0  0
 45 47  1  0  0  0
 47 58  1  0  0  0
 48 49  2  0  0  0
 48 50  1  0  0  0
 50 59  1  0  0  0
M  END
>  <AUTHOR>
    GENERATED BY OPEN BABEL 2.4.1

>  <CHROM.1>
-61.20294759,-125.86567969,71.32806719,120.74087940,52.02198161,115.78448821
-113.37760673,164.63395294,63.22713521,167.39286146,98.29609055,-170.04338614
77.25274471,-79.81252165,54.41293583,-168.13642997,174.56720385,-172.12512968
67.93173487,-102.37965170,47.51553658,163.79096152,37.51893720,-4.67721726
-164.26449748,61.22812167,-171.08115830,103.78505820,93.78004712,173.30166490
-179.21592557,-65.18184952,84.33314974,-177.97745493,48.94085664,41.80122831
-117.84711206,-101.71894768,153.27898676,-2.68808097,4.69993901,-10.31887522
-1.29845480,-0.36402782,2.79021134

>  <COMPND>
    UNNAMED

>  <MASTER>
        0    0    0    0    0    0    0    0  109    0  109    0

>  <Name>
FB1.pdb

>  <RI>
0

>  <Rbt.Current_Directory>
/home/fc/tossine/FB1_39/p3/3_clust03

>  <Rbt.Executable>
rbdock/0.1.0

>  <Rbt.Library>
librxdock.so/0.1.0

>  <Rbt.Parameter_File>
/cluster/rxdock/data/scripts/dock.prm

>  <Rbt.Receptor>
rx_2.prm

>  <SCORE>
45.0094

>  <SCORE.INTER>
7.75855

>  <SCORE.INTER.CONST>
1

>  <SCORE.INTER.POLAR>
-2.12029

>  <SCORE.INTER.REPUL>
0.0354179

>  <SCORE.INTER.ROT>
32

>  <SCORE.INTER.VDW>
-22.6096

>  <SCORE.INTER.norm>
0.155171

>  <SCORE.INTRA>
31.7551

>  <SCORE.INTRA.DIHEDRAL>
55.3989

>  <SCORE.INTRA.DIHEDRAL.0>
47.3121

>  <SCORE.INTRA.POLAR>
1.47808

>  <SCORE.INTRA.POLAR.0>
-1.47808

>  <SCORE.INTRA.REPUL>
0

>  <SCORE.INTRA.REPUL.0>
0

>  <SCORE.INTRA.VDW>
-0.96979

>  <SCORE.INTRA.VDW.0>
-2.78316

>  <SCORE.INTRA.norm>
0.635103

>  <SCORE.RESTR>
5.49573

>  <SCORE.RESTR.CAVITY>
5.49573

>  <SCORE.RESTR.norm>
0.109915

>  <SCORE.SYSTEM>
0

>  <SCORE.SYSTEM.CONST>
0

>  <SCORE.SYSTEM.DIHEDRAL>
0

>  <SCORE.SYSTEM.norm>
0

>  <SCORE.heavy>
50

>  <SCORE.norm>
0.900188

$$$$
