FB1.pdb
  RxDock  10072016023D
librxdock.so/0.1.0
 59 58  0  0  0  0  0  0  0  0999 V2000
   -3.8041    4.4909  -15.4611 C   0  0  0  0  0  0
   -3.5940    3.7966  -14.1175 C   0  0  0  0  0  0
   -4.1364    4.6385  -12.9507 C   0  0  0  0  0  0
   -3.8118    4.0443  -11.5574 C   0  0  0  0  0  0
   -3.7660    5.0882  -10.3875 C   0  0  0  0  0  0
   -5.0247    4.8911   -9.5114 C   0  0  0  0  0  0
   -2.4457    5.0002   -9.5117 C   0  0  0  0  0  0
   -1.1733    4.2981  -10.1857 C   0  0  0  0  0  0
   -1.0911    2.7685  -10.6119 C   0  0  0  0  0  0
   -1.6481    1.6980   -9.4871 C   0  0  0  0  0  0
   -3.1659    1.8426   -9.3898 C   0  0  0  0  0  0
   -1.2709    0.1666   -9.7265 C   0  0  0  0  0  0
   -1.9603   -1.0709   -8.9444 C   0  0  0  0  0  0
   -1.5065   -2.5560   -9.1559 C   0  0  0  0  0  0
   -1.0856   -3.0173  -10.6253 C   0  0  0  0  0  0
   -1.9963   -2.8485  -11.9047 C   0  0  0  0  0  0
   -2.6911   -1.4877  -12.1745 C   0  0  0  0  0  0
   -4.2377   -1.4129  -11.8716 C   0  0  0  0  0  0
   -4.7132   -0.2011  -11.0605 C   0  0  0  0  0  0
   -6.1823    0.2761  -11.2404 C   0  0  0  0  0  0
   -7.1172    0.4420  -10.0059 C   0  0  0  0  0  0
   -7.1630   -0.7245   -9.0290 C   0  0  0  0  0  0
   -6.8388    1.7085   -9.3023 N   0  0  0  0  0  0
   -6.0699    1.6062  -11.8078 O   0  0  0  0  0  0
   -4.9339   -1.4244  -13.1226 O   0  0  0  0  0  0
   -1.7286   -0.8026   -7.5512 O   0  0  0  0  0  0
   -0.9093    5.0286  -11.4142 O   0  0  0  0  0  0
    0.3454    5.5215  -11.5813 C   0  0  0  0  0  0
    1.3097    5.2882  -10.8775 O   0  0  0  0  0  0
    0.3741    6.3306  -12.8486 C   0  0  0  0  0  0
    1.7829    6.4268  -13.4557 C   0  0  0  0  0  0
    1.8022    7.2048  -14.7777 C   0  0  0  0  0  0
    2.9386    6.7478  -15.6627 C   0  0  0  0  0  0
    3.5397    7.4896  -16.4322 O   0  0  0  0  0  0
    3.2320    5.4462  -15.5260 O   0  0  0  0  0  0
    2.6448    7.1472  -12.4097 C   0  0  0  0  0  0
    2.1946    7.5854  -11.3619 O   0  0  0  0  0  0
    3.9285    7.3013  -12.7620 O   0  0  0  0  0  0
   -2.1046    6.3184   -8.9235 O   0  0  0  0  0  0
   -2.1386    7.4344   -9.7428 C   0  0  0  0  0  0
   -3.0139    7.6675  -10.5661 O   0  0  0  0  0  0
   -0.9435    8.3677   -9.5079 C   0  0  0  0  0  0
   -0.9351    9.6821  -10.3486 C   0  0  0  0  0  0
   -1.0253    9.5613  -11.8808 C   0  0  0  0  0  0
   -2.3440   10.0247  -12.4292 C   0  0  0  0  0  0
   -2.6482   11.1847  -12.6710 O   0  0  0  0  0  0
   -3.1901    9.0088  -12.6581 O   0  0  0  0  0  0
   -1.9741   10.7234   -9.9145 C   0  0  0  0  0  0
   -2.9840   10.4336   -9.3038 O   0  0  0  0  0  0
   -1.6443   12.0086  -10.1609 O   0  0  0  0  0  0
   -6.7303    2.4546   -9.9879 H   0  0  0  0  0  0
   -5.9265    1.6350   -8.8463 H   0  0  0  0  0  0
   -5.4188    2.0643  -11.2356 H   0  0  0  0  0  0
   -4.6518   -2.2137  -13.6205 H   0  0  0  0  0  0
   -0.7686   -0.8048   -7.4001 H   0  0  0  0  0  0
    4.0876    5.1698  -15.9069 H   0  0  0  0  0  0
    4.2186    6.7290  -13.5151 H   0  0  0  0  0  0
   -2.6406    8.2354  -12.9055 H   0  0  0  0  0  0
   -1.9309   12.6540   -9.4770 H   0  0  0  0  0  0
  1  2  1  0  0  0
  2  3  1  0  0  0
  3  4  1  0  0  0
  4  5  1  0  0  0
  5  6  1  0  0  0
  5  7  1  0  0  0
  7  8  1  0  0  0
  7 39  1  0  0  0
  8  9  1  0  0  0
  8 27  1  0  0  0
  9 10  1  0  0  0
 10 11  1  0  0  0
 10 12  1  0  0  0
 12 13  1  0  0  0
 13 14  1  0  0  0
 13 26  1  0  0  0
 14 15  1  0  0  0
 15 16  1  0  0  0
 16 17  1  0  0  0
 17 18  1  0  0  0
 18 19  1  0  0  0
 18 25  1  0  0  0
 19 20  1  0  0  0
 20 21  1  0  0  0
 20 24  1  0  0  0
 21 22  1  0  0  0
 21 23  1  0  0  0
 23 51  1  0  0  0
 23 52  1  0  0  0
 24 53  1  0  0  0
 25 54  1  0  0  0
 26 55  1  0  0  0
 27 28  1  0  0  0
 28 29  2  0  0  0
 28 30  1  0  0  0
 30 31  1  0  0  0
 31 32  1  0  0  0
 31 36  1  0  0  0
 32 33  1  0  0  0
 33 34  2  0  0  0
 33 35  1  0  0  0
 35 56  1  0  0  0
 36 37  2  0  0  0
 36 38  1  0  0  0
 38 57  1  0  0  0
 39 40  1  0  0  0
 40 41  2  0  0  0
 40 42  1  0  0  0
 42 43  1  0  0  0
 43 44  1  0  0  0
 43 48  1  0  0  0
 44 45  1  0  0  0
 45 46  2  0  0  0
 45 47  1  0  0  0
 47 58  1  0  0  0
 48 49  2  0  0  0
 48 50  1  0  0  0
 50 59  1  0  0  0
M  END
>  <AUTHOR>
    GENERATED BY OPEN BABEL 2.4.1

>  <CHROM.1>
-173.89437101,154.71680596,107.26659650,21.02198344,-64.63660394,-46.61887760
-45.98243379,125.72184315,69.97615961,-166.45316861,-176.69798989,-37.38664153
-62.55720909,-54.19765952,47.21214704,-104.46135976,132.49540603,153.81781450
55.15417662,126.26673860,-48.89204505,-48.90869579,43.92421175,8.73599965
-155.39994296,177.71497721,-152.39696752,-3.48048626,-147.34985261,-165.46889568
-16.04755158,42.56608573,-177.51220000,-55.56864653,109.29318908,-23.15257593
83.01616294,-31.67490729,-143.53918147,-1.89954344,4.44391806,-11.37073425
-1.11430235,-0.47822000,-3.10774104

>  <COMPND>
    UNNAMED

>  <MASTER>
        0    0    0    0    0    0    0    0  109    0  109    0

>  <Name>
FB1.pdb

>  <RI>
0

>  <Rbt.Current_Directory>
/home/fc/tossine/FB1_39/p3/3_clust03

>  <Rbt.Executable>
rbdock/0.1.0

>  <Rbt.Library>
librxdock.so/0.1.0

>  <Rbt.Parameter_File>
/cluster/rxdock/data/scripts/dock.prm

>  <Rbt.Receptor>
rx_1.prm

>  <SCORE>
58.1793

>  <SCORE.INTER>
29.9468

>  <SCORE.INTER.CONST>
1

>  <SCORE.INTER.POLAR>
-1.92168

>  <SCORE.INTER.REPUL>
1.73314

>  <SCORE.INTER.ROT>
32

>  <SCORE.INTER.VDW>
-9.58517

>  <SCORE.INTER.norm>
0.598937

>  <SCORE.INTRA>
26.359

>  <SCORE.INTRA.DIHEDRAL>
41.7877

>  <SCORE.INTRA.DIHEDRAL.0>
47.3121

>  <SCORE.INTRA.POLAR>
1.47808

>  <SCORE.INTRA.POLAR.0>
-1.47808

>  <SCORE.INTRA.REPUL>
0

>  <SCORE.INTRA.REPUL.0>
0

>  <SCORE.INTRA.VDW>
0.439678

>  <SCORE.INTRA.VDW.0>
-2.78316

>  <SCORE.INTRA.norm>
0.52718

>  <SCORE.RESTR>
1.87353

>  <SCORE.RESTR.CAVITY>
1.87353

>  <SCORE.RESTR.norm>
0.0374706

>  <SCORE.SYSTEM>
0

>  <SCORE.SYSTEM.CONST>
0

>  <SCORE.SYSTEM.DIHEDRAL>
0

>  <SCORE.SYSTEM.norm>
0

>  <SCORE.heavy>
50

>  <SCORE.norm>
1.16359

$$$$
