FB1.pdb
  RxDock  10072017463D
librxdock.so/0.1.0
 59 58  0  0  0  0  0  0  0  0999 V2000
   -5.2359   -2.0874  -12.3994 C   0  0  0  0  0  0
   -6.1004   -1.0373  -13.0932 C   0  0  0  0  0  0
   -6.4475    0.1273  -12.1512 C   0  0  0  0  0  0
   -7.1909    1.2901  -12.8547 C   0  0  0  0  0  0
   -6.9242    2.7107  -12.2452 C   0  0  0  0  0  0
   -7.3038    2.6751  -10.7467 C   0  0  0  0  0  0
   -5.4321    3.2138  -12.4408 C   0  0  0  0  0  0
   -5.1940    4.7979  -12.4366 C   0  0  0  0  0  0
   -3.8680    5.5252  -12.9277 C   0  0  0  0  0  0
   -2.5561    4.5413  -13.1073 C   0  0  0  0  0  0
   -2.5995    3.9253  -14.5047 C   0  0  0  0  0  0
   -1.1317    5.2175  -12.8648 C   0  0  0  0  0  0
    0.2624    4.3985  -12.7991 C   0  0  0  0  0  0
    1.6087    5.0659  -12.3541 C   0  0  0  0  0  0
    2.4461    5.8806  -13.4422 C   0  0  0  0  0  0
    1.9084    7.1538  -14.2067 C   0  0  0  0  0  0
    2.3536    8.5670  -13.7460 C   0  0  0  0  0  0
    1.2383    9.6824  -13.7133 C   0  0  0  0  0  0
   -0.1566    9.2352  -13.2585 C   0  0  0  0  0  0
   -0.5075    9.3381  -11.7470 C   0  0  0  0  0  0
   -1.9813    9.1935  -11.2651 C   0  0  0  0  0  0
   -2.2371    9.4380   -9.7845 C   0  0  0  0  0  0
   -2.8887   10.0054  -12.0981 N   0  0  0  0  0  0
    0.1997    8.2326  -11.1293 O   0  0  0  0  0  0
    1.6858   10.7292  -12.8453 O   0  0  0  0  0  0
    0.0300    3.3493  -11.8442 O   0  0  0  0  0  0
   -6.2446    5.3690  -13.2627 O   0  0  0  0  0  0
   -7.2365    6.0406  -12.6221 C   0  0  0  0  0  0
   -8.3947    6.1292  -12.9828 O   0  0  0  0  0  0
   -6.6891    6.5784  -11.3289 C   0  0  0  0  0  0
   -7.3348    7.9132  -10.9241 C   0  0  0  0  0  0
   -7.8342    7.9096   -9.4736 C   0  0  0  0  0  0
   -9.0929    7.0856   -9.3325 C   0  0  0  0  0  0
   -9.1091    5.9426   -8.8886 O   0  0  0  0  0  0
  -10.1991    7.7258   -9.7391 O   0  0  0  0  0  0
   -6.2455    8.9798  -11.1020 C   0  0  0  0  0  0
   -5.0514    8.7225  -11.0875 O   0  0  0  0  0  0
   -6.7110   10.2304  -11.2261 O   0  0  0  0  0  0
   -4.5052    2.5114  -11.5203 O   0  0  0  0  0  0
   -3.5408    1.6795  -12.0642 C   0  0  0  0  0  0
   -3.5346    1.2851  -13.2230 O   0  0  0  0  0  0
   -2.4592    1.2955  -11.0459 C   0  0  0  0  0  0
   -2.7310   -0.0043  -10.2266 C   0  0  0  0  0  0
   -1.6722   -0.4471   -9.2003 C   0  0  0  0  0  0
   -1.5246    0.5155   -8.0574 C   0  0  0  0  0  0
   -1.2752    1.7090   -8.1574 O   0  0  0  0  0  0
   -1.7168   -0.0698   -6.8654 O   0  0  0  0  0  0
   -4.0908   -0.0388   -9.5181 C   0  0  0  0  0  0
   -4.8655    0.8974   -9.5300 O   0  0  0  0  0  0
   -4.4253   -1.2229   -8.9637 O   0  0  0  0  0  0
   -3.8525    9.7457  -11.8930 H   0  0  0  0  0  0
   -2.7496    9.7490  -13.0781 H   0  0  0  0  0  0
   -0.1993    7.4308  -11.5284 H   0  0  0  0  0  0
    2.4718   11.1428  -13.2475 H   0  0  0  0  0  0
    0.8456    2.8265  -11.7676 H   0  0  0  0  0  0
  -10.0539    8.6236  -10.0946 H   0  0  0  0  0  0
   -7.6952   10.2959  -11.3021 H   0  0  0  0  0  0
   -1.4722    0.5918   -6.1845 H   0  0  0  0  0  0
   -3.7246   -1.9117   -8.9904 H   0  0  0  0  0  0
  1  2  1  0  0  0
  2  3  1  0  0  0
  3  4  1  0  0  0
  4  5  1  0  0  0
  5  6  1  0  0  0
  5  7  1  0  0  0
  7  8  1  0  0  0
  7 39  1  0  0  0
  8  9  1  0  0  0
  8 27  1  0  0  0
  9 10  1  0  0  0
 10 11  1  0  0  0
 10 12  1  0  0  0
 12 13  1  0  0  0
 13 14  1  0  0  0
 13 26  1  0  0  0
 14 15  1  0  0  0
 15 16  1  0  0  0
 16 17  1  0  0  0
 17 18  1  0  0  0
 18 19  1  0  0  0
 18 25  1  0  0  0
 19 20  1  0  0  0
 20 21  1  0  0  0
 20 24  1  0  0  0
 21 22  1  0  0  0
 21 23  1  0  0  0
 23 51  1  0  0  0
 23 52  1  0  0  0
 24 53  1  0  0  0
 25 54  1  0  0  0
 26 55  1  0  0  0
 27 28  1  0  0  0
 28 29  2  0  0  0
 28 30  1  0  0  0
 30 31  1  0  0  0
 31 32  1  0  0  0
 31 36  1  0  0  0
 32 33  1  0  0  0
 33 34  2  0  0  0
 33 35  1  0  0  0
 35 56  1  0  0  0
 36 37  2  0  0  0
 36 38  1  0  0  0
 38 57  1  0  0  0
 39 40  1  0  0  0
 40 41  2  0  0  0
 40 42  1  0  0  0
 42 43  1  0  0  0
 43 44  1  0  0  0
 43 48  1  0  0  0
 44 45  1  0  0  0
 45 46  2  0  0  0
 45 47  1  0  0  0
 47 58  1  0  0  0
 48 49  2  0  0  0
 48 50  1  0  0  0
 50 59  1  0  0  0
M  END
>  <AUTHOR>
    GENERATED BY OPEN BABEL 2.4.1

>  <CHROM.1>
173.64528985,-149.63641736,-56.74611931,155.03392520,-165.72551062,114.56425910
-14.87699628,107.32050811,85.97542519,171.69664645,-170.87467747,-83.17460665
-179.87948285,60.93585779,100.87000543,-138.19854394,37.46282094,91.19054133
65.49893829,166.90094084,-174.50650125,-63.23210101,168.24524356,-149.17711957
147.50881249,129.85922645,-73.99727043,-23.18816818,101.07121687,1.61510647
-7.34960709,-13.77321995,90.53259431,179.34707210,65.64954749,-3.88434210
-55.57187797,171.79206894,6.06605789,-3.65065226,4.77374193,-11.49927564
-2.06420561,0.15097703,-0.13681217

>  <COMPND>
    UNNAMED

>  <MASTER>
        0    0    0    0    0    0    0    0  109    0  109    0

>  <Name>
FB1.pdb

>  <RI>
0

>  <Rbt.Current_Directory>
/home/fc/tossine/FB1_39/p3/3_clust03

>  <Rbt.Executable>
rbdock/0.1.0

>  <Rbt.Library>
librxdock.so/0.1.0

>  <Rbt.Parameter_File>
/cluster/rxdock/data/scripts/dock.prm

>  <Rbt.Receptor>
rx_3.prm

>  <SCORE>
21.7116

>  <SCORE.INTER>
7.72378

>  <SCORE.INTER.CONST>
1

>  <SCORE.INTER.POLAR>
-2.29616

>  <SCORE.INTER.REPUL>
0.218151

>  <SCORE.INTER.ROT>
32

>  <SCORE.INTER.VDW>
-22.96

>  <SCORE.INTER.norm>
0.154476

>  <SCORE.INTRA>
12.6585

>  <SCORE.INTRA.DIHEDRAL>
22.4371

>  <SCORE.INTRA.DIHEDRAL.0>
47.3121

>  <SCORE.INTRA.POLAR>
0.495063

>  <SCORE.INTRA.POLAR.0>
-1.47808

>  <SCORE.INTRA.REPUL>
0.00458894

>  <SCORE.INTRA.REPUL.0>
0

>  <SCORE.INTRA.VDW>
-0.266234

>  <SCORE.INTRA.VDW.0>
-2.78316

>  <SCORE.INTRA.norm>
0.25317

>  <SCORE.RESTR>
1.32935

>  <SCORE.RESTR.CAVITY>
1.32935

>  <SCORE.RESTR.norm>
0.0265871

>  <SCORE.SYSTEM>
0

>  <SCORE.SYSTEM.CONST>
0

>  <SCORE.SYSTEM.DIHEDRAL>
0

>  <SCORE.SYSTEM.norm>
0

>  <SCORE.heavy>
50

>  <SCORE.norm>
0.434232

$$$$
