FB1.pdb
  RxDock  10072018203D
librxdock.so/0.1.0
 59 58  0  0  0  0  0  0  0  0999 V2000
   -0.4088   -1.2946  -11.3772 C   0  0  0  0  0  0
   -1.5842   -0.4984  -11.9393 C   0  0  0  0  0  0
   -1.1379    0.8695  -12.4815 C   0  0  0  0  0  0
   -2.2996    1.7104  -13.0673 C   0  0  0  0  0  0
   -2.2012    3.2526  -12.7980 C   0  0  0  0  0  0
   -1.6656    3.9356  -14.0776 C   0  0  0  0  0  0
   -3.5733    3.9041  -12.3389 C   0  0  0  0  0  0
   -4.5416    2.9985  -11.4398 C   0  0  0  0  0  0
   -4.2247    2.5100   -9.9602 C   0  0  0  0  0  0
   -2.7456    1.8083   -9.7570 C   0  0  0  0  0  0
   -1.6735    2.8881   -9.8943 C   0  0  0  0  0  0
   -2.5280    1.0086   -8.3940 C   0  0  0  0  0  0
   -1.2263    0.1033   -8.0707 C   0  0  0  0  0  0
   -1.2195   -1.4534   -8.2520 C   0  0  0  0  0  0
   -2.0874   -2.3370   -7.2445 C   0  0  0  0  0  0
   -3.6630   -2.4400   -7.2839 C   0  0  0  0  0  0
   -4.3748   -2.7641   -8.6240 C   0  0  0  0  0  0
   -3.9129   -4.0760   -9.3689 C   0  0  0  0  0  0
   -4.4594   -4.2801  -10.7874 C   0  0  0  0  0  0
   -4.0707   -3.2472  -11.8830 C   0  0  0  0  0  0
   -4.4175   -1.7391  -11.7077 C   0  0  0  0  0  0
   -4.5986   -0.9325  -12.9859 C   0  0  0  0  0  0
   -5.5734   -1.5670  -10.8073 N   0  0  0  0  0  0
   -2.6220   -3.2956  -11.9363 O   0  0  0  0  0  0
   -2.4825   -4.0694   -9.4292 O   0  0  0  0  0  0
   -0.2077    0.5892   -8.9613 O   0  0  0  0  0  0
   -5.7882    3.7355  -11.3160 O   0  0  0  0  0  0
   -5.8278    4.7297  -10.3911 C   0  0  0  0  0  0
   -4.8729    5.3401   -9.9497 O   0  0  0  0  0  0
   -7.2673    5.0259  -10.0722 C   0  0  0  0  0  0
   -8.2020    4.7638  -11.2639 C   0  0  0  0  0  0
   -9.6844    4.8300  -10.8749 C   0  0  0  0  0  0
   -9.9883    6.0898  -10.0977 C   0  0  0  0  0  0
  -10.5749    7.0556  -10.5739 O   0  0  0  0  0  0
   -9.5553    6.0524   -8.8289 O   0  0  0  0  0  0
   -7.8814    5.8512  -12.2986 C   0  0  0  0  0  0
   -8.6075    6.8121  -12.5032 O   0  0  0  0  0  0
   -6.7592    5.6349  -12.9985 O   0  0  0  0  0  0
   -3.3564    5.2447  -11.7426 O   0  0  0  0  0  0
   -3.1626    6.3207  -12.5928 C   0  0  0  0  0  0
   -3.3143    6.2849  -13.8070 O   0  0  0  0  0  0
   -2.7305    7.5873  -11.8424 C   0  0  0  0  0  0
   -1.4406    7.4538  -10.9747 C   0  0  0  0  0  0
   -0.1117    7.9501  -11.5732 C   0  0  0  0  0  0
    0.3960    7.0737  -12.6816 C   0  0  0  0  0  0
   -0.2975    6.4244  -13.4524 O   0  0  0  0  0  0
    1.7349    7.0798  -12.7683 O   0  0  0  0  0  0
   -1.5545    8.0514   -9.5668 C   0  0  0  0  0  0
   -1.7963    7.3809   -8.5825 O   0  0  0  0  0  0
   -1.2619    9.3652   -9.4697 O   0  0  0  0  0  0
   -6.3318   -1.1184  -11.3193 H   0  0  0  0  0  0
   -5.3201   -0.9006  -10.0743 H   0  0  0  0  0  0
   -2.4194   -4.1535  -12.3655 H   0  0  0  0  0  0
   -2.1941   -4.8733   -9.8993 H   0  0  0  0  0  0
    0.6431    0.2148   -8.6778 H   0  0  0  0  0  0
   -9.7950    6.8263   -8.2839 H   0  0  0  0  0  0
   -6.2333    4.8524  -12.6987 H   0  0  0  0  0  0
    2.0650    7.5754  -11.9894 H   0  0  0  0  0  0
   -1.2232    9.7199   -8.5538 H   0  0  0  0  0  0
  1  2  1  0  0  0
  2  3  1  0  0  0
  3  4  1  0  0  0
  4  5  1  0  0  0
  5  6  1  0  0  0
  5  7  1  0  0  0
  7  8  1  0  0  0
  7 39  1  0  0  0
  8  9  1  0  0  0
  8 27  1  0  0  0
  9 10  1  0  0  0
 10 11  1  0  0  0
 10 12  1  0  0  0
 12 13  1  0  0  0
 13 14  1  0  0  0
 13 26  1  0  0  0
 14 15  1  0  0  0
 15 16  1  0  0  0
 16 17  1  0  0  0
 17 18  1  0  0  0
 18 19  1  0  0  0
 18 25  1  0  0  0
 19 20  1  0  0  0
 20 21  1  0  0  0
 20 24  1  0  0  0
 21 22  1  0  0  0
 21 23  1  0  0  0
 23 51  1  0  0  0
 23 52  1  0  0  0
 24 53  1  0  0  0
 25 54  1  0  0  0
 26 55  1  0  0  0
 27 28  1  0  0  0
 28 29  2  0  0  0
 28 30  1  0  0  0
 30 31  1  0  0  0
 31 32  1  0  0  0
 31 36  1  0  0  0
 32 33  1  0  0  0
 33 34  2  0  0  0
 33 35  1  0  0  0
 35 56  1  0  0  0
 36 37  2  0  0  0
 36 38  1  0  0  0
 38 57  1  0  0  0
 39 40  1  0  0  0
 40 41  2  0  0  0
 40 42  1  0  0  0
 42 43  1  0  0  0
 43 44  1  0  0  0
 43 48  1  0  0  0
 44 45  1  0  0  0
 45 46  2  0  0  0
 45 47  1  0  0  0
 47 58  1  0  0  0
 48 49  2  0  0  0
 48 50  1  0  0  0
 50 59  1  0  0  0
M  END
>  <AUTHOR>
    GENERATED BY OPEN BABEL 2.4.1

>  <CHROM.1>
179.79270073,143.01243819,100.74712162,33.94216806,66.56519216,79.35926043
-49.96651604,-80.52073647,69.87572513,172.39575902,-98.13985933,-69.85913253
167.89223863,73.76047706,50.53117031,55.00295755,-170.95052898,63.15529312
-179.27576203,-58.64947881,-153.06861688,72.28900360,-118.30952952,23.94322996
-30.25983655,170.08366096,49.69969902,-104.89469286,104.78030106,-175.72408065
-5.83627586,9.22592556,56.69813477,98.32380810,-70.99879893,98.07978470,30.64835670
7.55364994,-172.51741178,-3.69164344,2.88720773,-10.90307971,-1.38803754
0.07407629,-0.15555441

>  <COMPND>
    UNNAMED

>  <MASTER>
        0    0    0    0    0    0    0    0  109    0  109    0

>  <Name>
FB1.pdb

>  <RI>
0

>  <Rbt.Current_Directory>
/home/fc/tossine/FB1_39/p3/3_clust03

>  <Rbt.Executable>
rbdock/0.1.0

>  <Rbt.Library>
librxdock.so/0.1.0

>  <Rbt.Parameter_File>
/cluster/rxdock/data/scripts/dock.prm

>  <Rbt.Receptor>
rx_4.prm

>  <SCORE>
29.8193

>  <SCORE.INTER>
18.0558

>  <SCORE.INTER.CONST>
1

>  <SCORE.INTER.POLAR>
-1.18247

>  <SCORE.INTER.REPUL>
0.469673

>  <SCORE.INTER.ROT>
32

>  <SCORE.INTER.VDW>
-17.6721

>  <SCORE.INTER.norm>
0.361117

>  <SCORE.INTRA>
6.05201

>  <SCORE.INTRA.DIHEDRAL>
0.482176

>  <SCORE.INTRA.DIHEDRAL.0>
47.3121

>  <SCORE.INTRA.POLAR>
0.535367

>  <SCORE.INTRA.POLAR.0>
-1.47808

>  <SCORE.INTRA.REPUL>
0

>  <SCORE.INTRA.REPUL.0>
0

>  <SCORE.INTRA.VDW>
3.99068

>  <SCORE.INTRA.VDW.0>
-2.78316

>  <SCORE.INTRA.norm>
0.12104

>  <SCORE.RESTR>
5.71143

>  <SCORE.RESTR.CAVITY>
5.71143

>  <SCORE.RESTR.norm>
0.114229

>  <SCORE.SYSTEM>
0

>  <SCORE.SYSTEM.CONST>
0

>  <SCORE.SYSTEM.DIHEDRAL>
0

>  <SCORE.SYSTEM.norm>
0

>  <SCORE.heavy>
50

>  <SCORE.norm>
0.596386

$$$$
