FB1.pdb
  RxDock  10072016053D
librxdock.so/0.1.0
 59 58  0  0  0  0  0  0  0  0999 V2000
    2.5342    5.6904  -13.8351 C   0  0  0  0  0  0
    1.6232    4.6223  -13.2346 C   0  0  0  0  0  0
    0.4312    5.2443  -12.4886 C   0  0  0  0  0  0
   -0.5436    4.1950  -11.8984 C   0  0  0  0  0  0
   -1.3730    3.3916  -12.9601 C   0  0  0  0  0  0
   -0.7555    1.9802  -13.0917 C   0  0  0  0  0  0
   -2.9206    3.3045  -12.6207 C   0  0  0  0  0  0
   -3.4108    2.0247  -11.7913 C   0  0  0  0  0  0
   -3.5029    1.9421  -10.2060 C   0  0  0  0  0  0
   -2.3485    1.0092   -9.4860 C   0  0  0  0  0  0
   -1.0577    1.8210   -9.3923 C   0  0  0  0  0  0
   -2.7156    0.4204   -8.0496 C   0  0  0  0  0  0
   -1.9309   -0.8064   -7.3439 C   0  0  0  0  0  0
   -2.6279   -1.7774   -6.3303 C   0  0  0  0  0  0
   -2.3776   -3.3462   -6.4901 C   0  0  0  0  0  0
   -1.6441   -4.2429   -5.4166 C   0  0  0  0  0  0
   -2.3474   -4.5509   -4.0683 C   0  0  0  0  0  0
   -2.1048   -3.5240   -2.8953 C   0  0  0  0  0  0
   -0.6429   -3.1747   -2.5897 C   0  0  0  0  0  0
    0.2596   -4.2701   -1.9542 C   0  0  0  0  0  0
   -0.2495   -5.1132   -0.7478 C   0  0  0  0  0  0
   -1.4038   -6.0659   -1.0262 C   0  0  0  0  0  0
    0.8677   -5.8165   -0.0894 N   0  0  0  0  0  0
    0.4765   -5.2310   -3.0189 O   0  0  0  0  0  0
   -2.8039   -2.3160   -3.2140 O   0  0  0  0  0  0
   -1.5008   -1.6437   -8.4304 O   0  0  0  0  0  0
   -4.7615    1.7390  -12.2455 O   0  0  0  0  0  0
   -5.7377    2.6008  -11.8587 C   0  0  0  0  0  0
   -5.5755    3.6605  -11.2841 O   0  0  0  0  0  0
   -7.0583    2.0759  -12.3503 C   0  0  0  0  0  0
   -7.8610    3.1317  -13.1271 C   0  0  0  0  0  0
   -8.0927    4.4112  -12.3133 C   0  0  0  0  0  0
   -9.0198    4.1556  -11.1478 C   0  0  0  0  0  0
   -9.8260    3.2323  -11.1122 O   0  0  0  0  0  0
   -8.8767    5.0377  -10.1477 O   0  0  0  0  0  0
   -7.0362    3.4494  -14.3821 C   0  0  0  0  0  0
   -5.9611    4.0282  -14.3446 O   0  0  0  0  0  0
   -7.6168    3.0827  -15.5329 O   0  0  0  0  0  0
   -3.4104    4.5717  -12.0255 O   0  0  0  0  0  0
   -3.3222    5.7308  -12.7784 C   0  0  0  0  0  0
   -3.5297    5.7963  -13.9830 O   0  0  0  0  0  0
   -2.9307    6.9488  -11.9313 C   0  0  0  0  0  0
   -3.8381    8.2076  -12.0949 C   0  0  0  0  0  0
   -5.0523    8.3505  -11.1592 C   0  0  0  0  0  0
   -5.9380    7.1381  -11.1581 C   0  0  0  0  0  0
   -7.0000    7.0296  -11.7556 O   0  0  0  0  0  0
   -5.4315    6.1332  -10.4273 O   0  0  0  0  0  0
   -3.0857    9.5438  -12.0680 C   0  0  0  0  0  0
   -3.4603   10.4994  -11.4174 O   0  0  0  0  0  0
   -1.9119    9.5613  -12.7335 O   0  0  0  0  0  0
    1.3597   -5.1649    0.5204 H   0  0  0  0  0  0
    1.5529   -6.0796   -0.8013 H   0  0  0  0  0  0
    1.1417   -5.8539   -2.6572 H   0  0  0  0  0  0
   -2.3176   -1.8620   -3.9267 H   0  0  0  0  0  0
   -0.9093   -1.1207   -8.9972 H   0  0  0  0  0  0
   -9.4243    4.8646   -9.3579 H   0  0  0  0  0  0
   -8.5008    2.6514  -15.4270 H   0  0  0  0  0  0
   -5.4420    5.3366  -10.9988 H   0  0  0  0  0  0
   -1.4170   10.4094  -12.6893 H   0  0  0  0  0  0
  1  2  1  0  0  0
  2  3  1  0  0  0
  3  4  1  0  0  0
  4  5  1  0  0  0
  5  6  1  0  0  0
  5  7  1  0  0  0
  7  8  1  0  0  0
  7 39  1  0  0  0
  8  9  1  0  0  0
  8 27  1  0  0  0
  9 10  1  0  0  0
 10 11  1  0  0  0
 10 12  1  0  0  0
 12 13  1  0  0  0
 13 14  1  0  0  0
 13 26  1  0  0  0
 14 15  1  0  0  0
 15 16  1  0  0  0
 16 17  1  0  0  0
 17 18  1  0  0  0
 18 19  1  0  0  0
 18 25  1  0  0  0
 19 20  1  0  0  0
 20 21  1  0  0  0
 20 24  1  0  0  0
 21 22  1  0  0  0
 21 23  1  0  0  0
 23 51  1  0  0  0
 23 52  1  0  0  0
 24 53  1  0  0  0
 25 54  1  0  0  0
 26 55  1  0  0  0
 27 28  1  0  0  0
 28 29  2  0  0  0
 28 30  1  0  0  0
 30 31  1  0  0  0
 31 32  1  0  0  0
 31 36  1  0  0  0
 32 33  1  0  0  0
 33 34  2  0  0  0
 33 35  1  0  0  0
 35 56  1  0  0  0
 36 37  2  0  0  0
 36 38  1  0  0  0
 38 57  1  0  0  0
 39 40  1  0  0  0
 40 41  2  0  0  0
 40 42  1  0  0  0
 42 43  1  0  0  0
 43 44  1  0  0  0
 43 48  1  0  0  0
 44 45  1  0  0  0
 45 46  2  0  0  0
 45 47  1  0  0  0
 47 58  1  0  0  0
 48 49  2  0  0  0
 48 50  1  0  0  0
 50 59  1  0  0  0
M  END
>  <AUTHOR>
    GENERATED BY OPEN BABEL 2.4.1

>  <CHROM.1>
178.28034311,-69.31015705,103.57975383,-92.78606624,90.93126949,61.12724695
-107.25533427,-71.85235348,79.93988239,163.13367120,-151.24956347,134.72520386
60.91770253,115.90134151,70.48677662,-89.03404900,-51.22603458,-69.58372607
-73.28608962,-46.54975307,67.10297096,172.51529808,79.74245965,8.00129356
-128.52726991,-55.79312469,-67.89568539,-68.16066873,-23.43935914,-176.38708395
-0.20316604,38.76955052,-129.50728891,90.29428028,-52.73522699,-134.12840005
-101.70167190,-128.60457013,-178.01652083,-3.37007029,2.27181263,-9.70503186
-1.83542518,0.12449277,2.42433450

>  <COMPND>
    UNNAMED

>  <MASTER>
        0    0    0    0    0    0    0    0  109    0  109    0

>  <Name>
FB1.pdb

>  <RI>
0

>  <Rbt.Current_Directory>
/home/fc/tossine/FB1_39/p3/3_clust03

>  <Rbt.Executable>
rbdock/0.1.0

>  <Rbt.Library>
librxdock.so/0.1.0

>  <Rbt.Parameter_File>
/cluster/rxdock/data/scripts/dock.prm

>  <Rbt.Receptor>
rx_1.prm

>  <SCORE>
37.4463

>  <SCORE.INTER>
17.1211

>  <SCORE.INTER.CONST>
1

>  <SCORE.INTER.POLAR>
-0.732614

>  <SCORE.INTER.REPUL>
0.796405

>  <SCORE.INTER.ROT>
32

>  <SCORE.INTER.VDW>
-21.77

>  <SCORE.INTER.norm>
0.342422

>  <SCORE.INTRA>
18.3495

>  <SCORE.INTRA.DIHEDRAL>
35.6703

>  <SCORE.INTRA.DIHEDRAL.0>
47.3121

>  <SCORE.INTRA.POLAR>
0.365858

>  <SCORE.INTRA.POLAR.0>
-1.47808

>  <SCORE.INTRA.REPUL>
0.000245214

>  <SCORE.INTRA.REPUL.0>
0

>  <SCORE.INTRA.VDW>
-0.730843

>  <SCORE.INTRA.VDW.0>
-2.78316

>  <SCORE.INTRA.norm>
0.366989

>  <SCORE.RESTR>
1.97574

>  <SCORE.RESTR.CAVITY>
1.97574

>  <SCORE.RESTR.norm>
0.0395147

>  <SCORE.SYSTEM>
0

>  <SCORE.SYSTEM.CONST>
0

>  <SCORE.SYSTEM.DIHEDRAL>
0

>  <SCORE.SYSTEM.norm>
0

>  <SCORE.heavy>
50

>  <SCORE.norm>
0.748926

$$$$
