FB1.pdb
  RxDock  10072015573D
librxdock.so/0.1.0
 59 58  0  0  0  0  0  0  0  0999 V2000
    3.5060    7.1001  -15.5896 C   0  0  0  0  0  0
    3.4188    5.9097  -14.6375 C   0  0  0  0  0  0
    2.5567    6.2284  -13.4048 C   0  0  0  0  0  0
    1.0356    6.2264  -13.6978 C   0  0  0  0  0  0
    0.1657    7.0497  -12.6848 C   0  0  0  0  0  0
    0.2516    8.5437  -13.0735 C   0  0  0  0  0  0
   -1.3446    6.5686  -12.6102 C   0  0  0  0  0  0
   -1.5973    5.0003  -12.4038 C   0  0  0  0  0  0
   -0.9386    4.1097  -11.2631 C   0  0  0  0  0  0
   -1.5423    2.5799  -11.1339 C   0  0  0  0  0  0
   -0.7029    1.6516  -12.0103 C   0  0  0  0  0  0
   -1.6347    1.9828   -9.6575 C   0  0  0  0  0  0
   -3.0239    1.6263   -8.9080 C   0  0  0  0  0  0
   -4.4198    1.7991   -9.5992 C   0  0  0  0  0  0
   -4.7597    0.8802  -10.8598 C   0  0  0  0  0  0
   -3.8890    0.8201  -12.1762 C   0  0  0  0  0  0
   -3.4105   -0.5542  -12.7144 C   0  0  0  0  0  0
   -2.5792   -1.4515  -11.7179 C   0  0  0  0  0  0
   -1.5845   -2.4307  -12.3538 C   0  0  0  0  0  0
   -0.4048   -2.9516  -11.4848 C   0  0  0  0  0  0
   -0.6765   -3.6640  -10.1268 C   0  0  0  0  0  0
    0.4263   -4.5760   -9.6076 C   0  0  0  0  0  0
   -1.0855   -2.6914   -9.0957 N   0  0  0  0  0  0
    0.2460   -3.9514  -12.3097 O   0  0  0  0  0  0
   -1.8610   -0.5827  -10.8354 O   0  0  0  0  0  0
   -2.9286    0.2254   -8.6000 O   0  0  0  0  0  0
   -3.0280    4.8422  -12.2027 O   0  0  0  0  0  0
   -3.8264    5.0158  -13.2879 C   0  0  0  0  0  0
   -3.4619    5.0780  -14.4466 O   0  0  0  0  0  0
   -5.2587    5.0177  -12.8297 C   0  0  0  0  0  0
   -5.4988    4.0756  -11.6392 C   0  0  0  0  0  0
   -5.7246    4.8337  -10.3248 C   0  0  0  0  0  0
   -6.7535    5.9271  -10.4960 C   0  0  0  0  0  0
   -7.8682    5.7410  -10.9720 O   0  0  0  0  0  0
   -6.3318    7.1284  -10.0742 O   0  0  0  0  0  0
   -6.7476    3.2568  -11.9944 C   0  0  0  0  0  0
   -7.6512    3.0406  -11.2013 O   0  0  0  0  0  0
   -6.7440    2.7536  -13.2365 O   0  0  0  0  0  0
   -2.1201    7.3866  -11.6462 O   0  0  0  0  0  0
   -2.0051    7.0996  -10.2962 C   0  0  0  0  0  0
   -2.1490    5.9872   -9.8061 O   0  0  0  0  0  0
   -1.6717    8.3431   -9.4613 C   0  0  0  0  0  0
   -2.6264    9.5625   -9.6514 C   0  0  0  0  0  0
   -2.3920   10.8078   -8.7770 C   0  0  0  0  0  0
   -1.2001   11.6121   -9.2091 C   0  0  0  0  0  0
   -0.0462   11.4295   -8.8459 O   0  0  0  0  0  0
   -1.5226   12.5795  -10.0812 O   0  0  0  0  0  0
   -2.7626   10.0458  -11.1006 C   0  0  0  0  0  0
   -1.8214   10.4547  -11.7515 O   0  0  0  0  0  0
   -3.9846    9.8887  -11.6513 O   0  0  0  0  0  0
   -2.0849   -2.5123   -9.1831 H   0  0  0  0  0  0
   -0.6385   -1.7942   -9.2973 H   0  0  0  0  0  0
    0.8610   -3.4406  -12.8773 H   0  0  0  0  0  0
   -2.4566   -0.3298  -10.1061 H   0  0  0  0  0  0
   -3.5849    0.0234   -7.9122 H   0  0  0  0  0  0
   -6.9597    7.8630  -10.2141 H   0  0  0  0  0  0
   -7.5862    2.3063  -13.5001 H   0  0  0  0  0  0
   -2.4806   12.4835  -10.2662 H   0  0  0  0  0  0
   -4.6651    9.4991  -11.0586 H   0  0  0  0  0  0
  1  2  1  0  0  0
  2  3  1  0  0  0
  3  4  1  0  0  0
  4  5  1  0  0  0
  5  6  1  0  0  0
  5  7  1  0  0  0
  7  8  1  0  0  0
  7 39  1  0  0  0
  8  9  1  0  0  0
  8 27  1  0  0  0
  9 10  1  0  0  0
 10 11  1  0  0  0
 10 12  1  0  0  0
 12 13  1  0  0  0
 13 14  1  0  0  0
 13 26  1  0  0  0
 14 15  1  0  0  0
 15 16  1  0  0  0
 16 17  1  0  0  0
 17 18  1  0  0  0
 18 19  1  0  0  0
 18 25  1  0  0  0
 19 20  1  0  0  0
 20 21  1  0  0  0
 20 24  1  0  0  0
 21 22  1  0  0  0
 21 23  1  0  0  0
 23 51  1  0  0  0
 23 52  1  0  0  0
 24 53  1  0  0  0
 25 54  1  0  0  0
 26 55  1  0  0  0
 27 28  1  0  0  0
 28 29  2  0  0  0
 28 30  1  0  0  0
 30 31  1  0  0  0
 31 32  1  0  0  0
 31 36  1  0  0  0
 32 33  1  0  0  0
 33 34  2  0  0  0
 33 35  1  0  0  0
 35 56  1  0  0  0
 36 37  2  0  0  0
 36 38  1  0  0  0
 38 57  1  0  0  0
 39 40  1  0  0  0
 40 41  2  0  0  0
 40 42  1  0  0  0
 42 43  1  0  0  0
 43 44  1  0  0  0
 43 48  1  0  0  0
 44 45  1  0  0  0
 45 46  2  0  0  0
 45 47  1  0  0  0
 47 58  1  0  0  0
 48 49  2  0  0  0
 48 50  1  0  0  0
 50 59  1  0  0  0
M  END
>  <AUTHOR>
    GENERATED BY OPEN BABEL 2.4.1

>  <CHROM.1>
75.83367012,-157.68568499,80.59608851,50.13934599,51.74730659,-80.02007046
171.08225298,72.14185798,91.45066194,114.43976125,1.98514005,65.30719971
161.94319986,-57.17455058,127.78616873,-56.04692449,-152.48126985,158.24618342
84.07964026,56.04788115,157.91116889,84.73541421,83.44041468,12.63493452
-33.91222752,107.36533336,49.15694143,-135.73239674,52.46959962,177.04705306
-173.94486510,-51.50649566,53.40326863,176.36418615,74.62123076,-60.87703689
-87.20915236,-3.37924114,1.31526457,-2.41612202,4.33964409,-11.34614533,-1.56639217
-0.22678666,3.14043607

>  <COMPND>
    UNNAMED

>  <MASTER>
        0    0    0    0    0    0    0    0  109    0  109    0

>  <Name>
FB1.pdb

>  <RI>
0

>  <Rbt.Current_Directory>
/home/fc/tossine/FB1_39/p3/3_clust03

>  <Rbt.Executable>
rbdock/0.1.0

>  <Rbt.Library>
librxdock.so/0.1.0

>  <Rbt.Parameter_File>
/cluster/rxdock/data/scripts/dock.prm

>  <Rbt.Receptor>
rx_1.prm

>  <SCORE>
39.3072

>  <SCORE.INTER>
22.6925

>  <SCORE.INTER.CONST>
1

>  <SCORE.INTER.POLAR>
0

>  <SCORE.INTER.REPUL>
0.281473

>  <SCORE.INTER.ROT>
32

>  <SCORE.INTER.VDW>
-16.1149

>  <SCORE.INTER.norm>
0.45385

>  <SCORE.INTRA>
16.0235

>  <SCORE.INTRA.DIHEDRAL>
31.4342

>  <SCORE.INTRA.DIHEDRAL.0>
47.3121

>  <SCORE.INTRA.POLAR>
0.389709

>  <SCORE.INTRA.POLAR.0>
-1.47808

>  <SCORE.INTRA.REPUL>
0

>  <SCORE.INTRA.REPUL.0>
0

>  <SCORE.INTRA.VDW>
-1.0186

>  <SCORE.INTRA.VDW.0>
-2.78316

>  <SCORE.INTRA.norm>
0.320471

>  <SCORE.RESTR>
0.591128

>  <SCORE.RESTR.CAVITY>
0.591128

>  <SCORE.RESTR.norm>
0.0118226

>  <SCORE.SYSTEM>
0

>  <SCORE.SYSTEM.CONST>
0

>  <SCORE.SYSTEM.DIHEDRAL>
0

>  <SCORE.SYSTEM.norm>
0

>  <SCORE.heavy>
50

>  <SCORE.norm>
0.786143

$$$$
