FB1.pdb
  RxDock  10072015123D
librxdock.so/0.1.0
 59 58  0  0  0  0  0  0  0  0999 V2000
   -6.2758   -3.2391  -15.8266 C   0  0  0  0  0  0
   -6.8177   -2.6650  -14.5197 C   0  0  0  0  0  0
   -6.1947   -3.3533  -13.2939 C   0  0  0  0  0  0
   -6.8706   -2.9621  -11.9561 C   0  0  0  0  0  0
   -6.7579   -1.4442  -11.5769 C   0  0  0  0  0  0
   -7.8488   -1.1231  -10.5294 C   0  0  0  0  0  0
   -5.3214   -1.0292  -11.0458 C   0  0  0  0  0  0
   -4.6613    0.2819  -11.6873 C   0  0  0  0  0  0
   -3.1284    0.4356  -12.0808 C   0  0  0  0  0  0
   -2.0575    0.0371  -10.8909 C   0  0  0  0  0  0
   -1.0203   -0.9217  -11.4731 C   0  0  0  0  0  0
   -1.3173    1.2551  -10.1744 C   0  0  0  0  0  0
   -0.3193    2.2812  -10.9291 C   0  0  0  0  0  0
   -0.7531    3.0971  -12.1949 C   0  0  0  0  0  0
   -1.6615    4.3934  -11.9857 C   0  0  0  0  0  0
   -1.1208    5.7828  -11.4644 C   0  0  0  0  0  0
   -2.1270    6.8728  -11.0095 C   0  0  0  0  0  0
   -3.3389    7.1624  -11.9772 C   0  0  0  0  0  0
   -3.9919    8.5447  -11.8534 C   0  0  0  0  0  0
   -3.0681    9.7838  -11.6821 C   0  0  0  0  0  0
   -2.3584   10.0600  -10.3236 C   0  0  0  0  0  0
   -1.6872   11.4181  -10.1736 C   0  0  0  0  0  0
   -3.2669    9.7931   -9.1923 N   0  0  0  0  0  0
   -1.9922    9.5745  -12.6320 O   0  0  0  0  0  0
   -2.8792    6.9954  -13.3228 O   0  0  0  0  0  0
    0.0106    3.2707   -9.9398 O   0  0  0  0  0  0
   -5.3778    0.5326  -12.9268 O   0  0  0  0  0  0
   -6.5719    1.1730  -12.8304 C   0  0  0  0  0  0
   -7.6700    0.6761  -12.9937 O   0  0  0  0  0  0
   -6.3191    2.5870  -12.3852 C   0  0  0  0  0  0
   -6.7469    3.6225  -13.4374 C   0  0  0  0  0  0
   -8.2713    3.7543  -13.5477 C   0  0  0  0  0  0
   -8.7246    3.6538  -14.9857 C   0  0  0  0  0  0
   -8.0827    3.0830  -15.8608 O   0  0  0  0  0  0
   -9.9036    4.2498  -15.2172 O   0  0  0  0  0  0
   -6.1354    4.9570  -12.9888 C   0  0  0  0  0  0
   -5.1921    5.4836  -13.5592 O   0  0  0  0  0  0
   -6.6908    5.4767  -11.8855 O   0  0  0  0  0  0
   -5.2870   -0.9983   -9.5633 O   0  0  0  0  0  0
   -4.5163   -1.9401   -8.9022 C   0  0  0  0  0  0
   -3.5362   -2.4970   -9.3793 O   0  0  0  0  0  0
   -5.0261   -2.2189   -7.4821 C   0  0  0  0  0  0
   -3.9270   -2.3661   -6.3845 C   0  0  0  0  0  0
   -4.3228   -3.0186   -5.0473 C   0  0  0  0  0  0
   -5.8089   -3.0787   -4.8412 C   0  0  0  0  0  0
   -6.6200   -2.2608   -5.2531 O   0  0  0  0  0  0
   -6.1877   -4.1654   -4.1513 O   0  0  0  0  0  0
   -2.6395   -3.0513   -6.8592 C   0  0  0  0  0  0
   -2.5105   -4.2589   -6.8995 O   0  0  0  0  0  0
   -1.6850   -2.2246   -7.3354 O   0  0  0  0  0  0
   -3.1450    8.8287   -8.8863 H   0  0  0  0  0  0
   -4.2311    9.8428   -9.5289 H   0  0  0  0  0  0
   -2.4117    9.6939  -13.5101 H   0  0  0  0  0  0
   -3.6470    6.7734  -13.8812 H   0  0  0  0  0  0
    0.9638    3.4501  -10.0001 H   0  0  0  0  0  0
  -10.3274    4.6527  -14.4352 H   0  0  0  0  0  0
   -6.2794    6.3227  -11.5789 H   0  0  0  0  0  0
   -5.3889   -4.7240   -4.0455 H   0  0  0  0  0  0
   -1.8479   -1.2665   -7.1882 H   0  0  0  0  0  0
  1  2  1  0  0  0
  2  3  1  0  0  0
  3  4  1  0  0  0
  4  5  1  0  0  0
  5  6  1  0  0  0
  5  7  1  0  0  0
  7  8  1  0  0  0
  7 39  1  0  0  0
  8  9  1  0  0  0
  8 27  1  0  0  0
  9 10  1  0  0  0
 10 11  1  0  0  0
 10 12  1  0  0  0
 12 13  1  0  0  0
 13 14  1  0  0  0
 13 26  1  0  0  0
 14 15  1  0  0  0
 15 16  1  0  0  0
 16 17  1  0  0  0
 17 18  1  0  0  0
 18 19  1  0  0  0
 18 25  1  0  0  0
 19 20  1  0  0  0
 20 21  1  0  0  0
 20 24  1  0  0  0
 21 22  1  0  0  0
 21 23  1  0  0  0
 23 51  1  0  0  0
 23 52  1  0  0  0
 24 53  1  0  0  0
 25 54  1  0  0  0
 26 55  1  0  0  0
 27 28  1  0  0  0
 28 29  2  0  0  0
 28 30  1  0  0  0
 30 31  1  0  0  0
 31 32  1  0  0  0
 31 36  1  0  0  0
 32 33  1  0  0  0
 33 34  2  0  0  0
 33 35  1  0  0  0
 35 56  1  0  0  0
 36 37  2  0  0  0
 36 38  1  0  0  0
 38 57  1  0  0  0
 39 40  1  0  0  0
 40 41  2  0  0  0
 40 42  1  0  0  0
 42 43  1  0  0  0
 43 44  1  0  0  0
 43 48  1  0  0  0
 44 45  1  0  0  0
 45 46  2  0  0  0
 45 47  1  0  0  0
 47 58  1  0  0  0
 48 49  2  0  0  0
 48 50  1  0  0  0
 50 59  1  0  0  0
M  END
>  <AUTHOR>
    GENERATED BY OPEN BABEL 2.4.1

>  <CHROM.1>
-170.99521470,-62.84826199,160.80755277,131.72086540,-139.51463918,112.50687581
-51.29937503,81.13992608,130.12793849,-63.08534053,55.64239113,78.24033342
136.93558540,76.46986251,-166.83351789,-47.64795227,-156.39300111,41.88704448
154.86397136,-74.33820737,-169.16687772,70.04132195,92.06464037,-107.87462552
116.60087959,72.60291609,-129.83121438,107.70622318,24.26375104,-1.26548683
178.20279405,25.79311962,-138.79761926,-163.45081778,-16.18938785,-83.92871093
-32.13974972,-7.05792688,10.02037044,-4.48939387,1.86489455,-10.96901999
1.74167810,0.80992750,2.67520060

>  <COMPND>
    UNNAMED

>  <MASTER>
        0    0    0    0    0    0    0    0  109    0  109    0

>  <Name>
FB1.pdb

>  <RI>
0

>  <Rbt.Current_Directory>
/home/fc/tossine/FB1_39/p3/3_clust03

>  <Rbt.Executable>
rbdock/0.1.0

>  <Rbt.Library>
librxdock.so/0.1.0

>  <Rbt.Parameter_File>
/cluster/rxdock/data/scripts/dock.prm

>  <Rbt.Receptor>
rx_0.prm

>  <SCORE>
28.9666

>  <SCORE.INTER>
2.12348

>  <SCORE.INTER.CONST>
1

>  <SCORE.INTER.POLAR>
-3.11399

>  <SCORE.INTER.REPUL>
0.0915576

>  <SCORE.INTER.ROT>
32

>  <SCORE.INTER.VDW>
-25.1467

>  <SCORE.INTER.norm>
0.0424696

>  <SCORE.INTRA>
25.9035

>  <SCORE.INTRA.DIHEDRAL>
45.8539

>  <SCORE.INTRA.DIHEDRAL.0>
47.3121

>  <SCORE.INTRA.POLAR>
0.866381

>  <SCORE.INTRA.POLAR.0>
-1.47808

>  <SCORE.INTRA.REPUL>
0

>  <SCORE.INTRA.REPUL.0>
0

>  <SCORE.INTRA.VDW>
0.0308854

>  <SCORE.INTRA.VDW.0>
-2.78316

>  <SCORE.INTRA.norm>
0.51807

>  <SCORE.RESTR>
0.939625

>  <SCORE.RESTR.CAVITY>
0.939625

>  <SCORE.RESTR.norm>
0.0187925

>  <SCORE.SYSTEM>
0

>  <SCORE.SYSTEM.CONST>
0

>  <SCORE.SYSTEM.DIHEDRAL>
0

>  <SCORE.SYSTEM.norm>
0

>  <SCORE.heavy>
50

>  <SCORE.norm>
0.579333

$$$$
