FB1.pdb
  RxDock  10072017093D
librxdock.so/0.1.0
 59 58  0  0  0  0  0  0  0  0999 V2000
    3.0015    6.0922  -13.0733 C   0  0  0  0  0  0
    1.9096    6.0718  -14.1404 C   0  0  0  0  0  0
    0.8028    7.0966  -13.8422 C   0  0  0  0  0  0
   -0.0836    6.7134  -12.6309 C   0  0  0  0  0  0
   -1.3617    5.8759  -12.9851 C   0  0  0  0  0  0
   -0.9126    4.4540  -13.3938 C   0  0  0  0  0  0
   -2.4270    5.8188  -11.8105 C   0  0  0  0  0  0
   -1.9415    5.1877  -10.4205 C   0  0  0  0  0  0
   -1.2790    3.7524  -10.2491 C   0  0  0  0  0  0
   -2.2272    2.4846  -10.7126 C   0  0  0  0  0  0
   -1.3433    1.2475  -10.8632 C   0  0  0  0  0  0
   -3.4630    2.1465   -9.7623 C   0  0  0  0  0  0
   -4.8899    2.9072   -9.8238 C   0  0  0  0  0  0
   -6.2084    2.2660   -9.2700 C   0  0  0  0  0  0
   -6.6677    0.8536   -9.8558 C   0  0  0  0  0  0
   -6.9934    0.5863  -11.3780 C   0  0  0  0  0  0
   -5.8813    0.7781  -12.4429 C   0  0  0  0  0  0
   -4.4929    0.0906  -12.1449 C   0  0  0  0  0  0
   -4.5280   -1.4163  -11.8608 C   0  0  0  0  0  0
   -3.4566   -2.0113  -10.9036 C   0  0  0  0  0  0
   -1.9559   -2.0451  -11.3187 C   0  0  0  0  0  0
   -1.2754   -3.4066  -11.2895 C   0  0  0  0  0  0
   -1.7562   -1.3837  -12.6222 N   0  0  0  0  0  0
   -3.5020   -1.1628   -9.7281 O   0  0  0  0  0  0
   -3.6354    0.3218  -13.2679 O   0  0  0  0  0  0
   -4.7031    4.1060   -9.0526 O   0  0  0  0  0  0
   -0.9537    6.1067   -9.8799 O   0  0  0  0  0  0
   -1.3876    7.0079   -8.9608 C   0  0  0  0  0  0
   -1.6157    6.7853   -7.7870 O   0  0  0  0  0  0
   -1.4444    8.3623   -9.6119 C   0  0  0  0  0  0
   -0.1896    9.2047   -9.3324 C   0  0  0  0  0  0
    1.0796    8.5880   -9.9343 C   0  0  0  0  0  0
    2.2954    9.4290   -9.6216 C   0  0  0  0  0  0
    2.4268   10.0727   -8.5861 O   0  0  0  0  0  0
    3.2251    9.4044  -10.5880 O   0  0  0  0  0  0
   -0.4553   10.5791   -9.9622 C   0  0  0  0  0  0
   -0.0306   10.9026  -11.0610 O   0  0  0  0  0  0
   -1.1531   11.4182   -9.1844 O   0  0  0  0  0  0
   -3.0869    7.1337  -11.6218 O   0  0  0  0  0  0
   -4.4674    7.1973  -11.7120 C   0  0  0  0  0  0
   -5.1102    8.2315  -11.8363 O   0  0  0  0  0  0
   -5.1217    5.8112  -11.6396 C   0  0  0  0  0  0
   -6.6574    5.8007  -11.3641 C   0  0  0  0  0  0
   -7.3978    4.4533  -11.4467 C   0  0  0  0  0  0
   -7.2714    3.7961  -12.7908 C   0  0  0  0  0  0
   -6.4472    4.0797  -13.6491 O   0  0  0  0  0  0
   -8.1691    2.8148  -12.9686 O   0  0  0  0  0  0
   -7.0733    6.4659  -10.0462 C   0  0  0  0  0  0
   -7.7216    7.4927  -10.0008 O   0  0  0  0  0  0
   -6.7639    5.7782   -8.9271 O   0  0  0  0  0  0
   -2.0141   -2.0292  -13.3674 H   0  0  0  0  0  0
   -0.7562   -1.2158  -12.7534 H   0  0  0  0  0  0
   -4.3893   -1.3223   -9.3428 H   0  0  0  0  0  0
   -2.7781   -0.1066  -13.0892 H   0  0  0  0  0  0
   -4.0204    4.6417   -9.4902 H   0  0  0  0  0  0
    3.0784    8.7422  -11.2904 H   0  0  0  0  0  0
   -1.4158   11.0422   -8.3079 H   0  0  0  0  0  0
   -7.9460    2.3801  -13.8187 H   0  0  0  0  0  0
   -6.1745    5.0029   -9.0604 H   0  0  0  0  0  0
  1  2  1  0  0  0
  2  3  1  0  0  0
  3  4  1  0  0  0
  4  5  1  0  0  0
  5  6  1  0  0  0
  5  7  1  0  0  0
  7  8  1  0  0  0
  7 39  1  0  0  0
  8  9  1  0  0  0
  8 27  1  0  0  0
  9 10  1  0  0  0
 10 11  1  0  0  0
 10 12  1  0  0  0
 12 13  1  0  0  0
 13 14  1  0  0  0
 13 26  1  0  0  0
 14 15  1  0  0  0
 15 16  1  0  0  0
 16 17  1  0  0  0
 17 18  1  0  0  0
 18 19  1  0  0  0
 18 25  1  0  0  0
 19 20  1  0  0  0
 20 21  1  0  0  0
 20 24  1  0  0  0
 21 22  1  0  0  0
 21 23  1  0  0  0
 23 51  1  0  0  0
 23 52  1  0  0  0
 24 53  1  0  0  0
 25 54  1  0  0  0
 26 55  1  0  0  0
 27 28  1  0  0  0
 28 29  2  0  0  0
 28 30  1  0  0  0
 30 31  1  0  0  0
 31 32  1  0  0  0
 31 36  1  0  0  0
 32 33  1  0  0  0
 33 34  2  0  0  0
 33 35  1  0  0  0
 35 56  1  0  0  0
 36 37  2  0  0  0
 36 38  1  0  0  0
 38 57  1  0  0  0
 39 40  1  0  0  0
 40 41  2  0  0  0
 40 42  1  0  0  0
 42 43  1  0  0  0
 43 44  1  0  0  0
 43 48  1  0  0  0
 44 45  1  0  0  0
 45 46  2  0  0  0
 45 47  1  0  0  0
 47 58  1  0  0  0
 48 49  2  0  0  0
 48 50  1  0  0  0
 50 59  1  0  0  0
M  END
>  <AUTHOR>
    GENERATED BY OPEN BABEL 2.4.1

>  <CHROM.1>
-70.70053431,-91.29081376,71.17096006,-59.62623540,-54.04181185,123.06993122
-60.98585086,96.84731138,164.27355817,82.96166479,158.06331532,-57.19990156
62.60924697,-59.92471943,61.70339403,49.04983030,54.72821461,-149.38242943
-179.66246943,-67.43166049,-124.41202268,65.84114704,-80.09141102,77.71625912
-96.84265344,64.22552932,-179.06775852,-98.23143579,32.79061124,-9.90965148
-0.59162591,-165.11022196,164.84712249,172.85519513,-58.75396985,113.14291064
16.44368198,-173.58205659,9.88723451,-2.84824133,4.68813091,-11.02309603
-1.03542676,-0.06868090,-2.98845823

>  <COMPND>
    UNNAMED

>  <MASTER>
        0    0    0    0    0    0    0    0  109    0  109    0

>  <Name>
FB1.pdb

>  <RI>
0

>  <Rbt.Current_Directory>
/home/fc/tossine/FB1_39/p3/3_clust03

>  <Rbt.Executable>
rbdock/0.1.0

>  <Rbt.Library>
librxdock.so/0.1.0

>  <Rbt.Parameter_File>
/cluster/rxdock/data/scripts/dock.prm

>  <Rbt.Receptor>
rx_2.prm

>  <SCORE>
6.50253

>  <SCORE.INTER>
3.16151

>  <SCORE.INTER.CONST>
1

>  <SCORE.INTER.POLAR>
-2.3487

>  <SCORE.INTER.REPUL>
0.0761149

>  <SCORE.INTER.ROT>
32

>  <SCORE.INTER.VDW>
-26.6335

>  <SCORE.INTER.norm>
0.0632303

>  <SCORE.INTRA>
2.23333

>  <SCORE.INTRA.DIHEDRAL>
19.0143

>  <SCORE.INTRA.DIHEDRAL.0>
47.3121

>  <SCORE.INTRA.POLAR>
-0.521923

>  <SCORE.INTRA.POLAR.0>
-1.47808

>  <SCORE.INTRA.REPUL>
0

>  <SCORE.INTRA.REPUL.0>
0

>  <SCORE.INTRA.VDW>
-5.49926

>  <SCORE.INTRA.VDW.0>
-2.78316

>  <SCORE.INTRA.norm>
0.0446666

>  <SCORE.RESTR>
1.10768

>  <SCORE.RESTR.CAVITY>
1.10768

>  <SCORE.RESTR.norm>
0.0221537

>  <SCORE.SYSTEM>
0

>  <SCORE.SYSTEM.CONST>
0

>  <SCORE.SYSTEM.DIHEDRAL>
0

>  <SCORE.SYSTEM.norm>
0

>  <SCORE.heavy>
50

>  <SCORE.norm>
0.130051

$$$$
