FB1.pdb
  RxDock  10072017383D
librxdock.so/0.1.0
 59 58  0  0  0  0  0  0  0  0999 V2000
   -7.8066   11.0158   -8.8962 C   0  0  0  0  0  0
   -6.3995   11.6071   -8.9389 C   0  0  0  0  0  0
   -5.6415   11.1821  -10.2074 C   0  0  0  0  0  0
   -4.2129   11.7738  -10.3005 C   0  0  0  0  0  0
   -3.4629   11.4829  -11.6472 C   0  0  0  0  0  0
   -2.7260   12.7712  -12.0806 C   0  0  0  0  0  0
   -2.4594   10.2568  -11.5610 C   0  0  0  0  0  0
   -2.8865    8.9144  -12.3237 C   0  0  0  0  0  0
   -1.9170    7.6952  -12.6427 C   0  0  0  0  0  0
   -0.4651    7.7329  -11.8604 C   0  0  0  0  0  0
   -0.6221    7.0311  -10.5124 C   0  0  0  0  0  0
    0.7740    7.1084  -12.6474 C   0  0  0  0  0  0
    1.6316    5.8380  -12.1288 C   0  0  0  0  0  0
    1.1572    4.3598  -12.3437 C   0  0  0  0  0  0
   -0.3753    4.0084  -12.0660 C   0  0  0  0  0  0
   -0.9155    2.5517  -11.7817 C   0  0  0  0  0  0
   -0.6664    1.4274  -12.8215 C   0  0  0  0  0  0
   -1.8168    0.3621  -12.9981 C   0  0  0  0  0  0
   -2.5955   -0.0132  -11.7311 C   0  0  0  0  0  0
   -1.8210   -0.6836  -10.5611 C   0  0  0  0  0  0
   -2.3550   -0.5884   -9.1013 C   0  0  0  0  0  0
   -1.6441   -1.4446   -8.0626 C   0  0  0  0  0  0
   -2.4339    0.8175   -8.6612 N   0  0  0  0  0  0
   -1.8352   -2.0997  -10.8745 O   0  0  0  0  0  0
   -2.7415    0.8672  -13.9674 O   0  0  0  0  0  0
    2.8882    5.9330  -12.8206 O   0  0  0  0  0  0
   -3.9593    8.3255  -11.5397 O   0  0  0  0  0  0
   -4.9556    7.7062  -12.2247 C   0  0  0  0  0  0
   -5.8958    8.2482  -12.7739 O   0  0  0  0  0  0
   -4.6511    6.2346  -12.2811 C   0  0  0  0  0  0
   -5.8555    5.4000  -12.7452 C   0  0  0  0  0  0
   -5.4526    3.9969  -13.2168 C   0  0  0  0  0  0
   -4.2832    4.0576  -14.1718 C   0  0  0  0  0  0
   -4.3436    4.5648  -15.2867 O   0  0  0  0  0  0
   -3.1644    3.5029  -13.6826 O   0  0  0  0  0  0
   -6.7907    5.2981  -11.5323 C   0  0  0  0  0  0
   -6.4327    5.5478  -10.3913 O   0  0  0  0  0  0
   -8.0250    4.8633  -11.8207 O   0  0  0  0  0  0
   -1.0767   10.6717  -11.9014 O   0  0  0  0  0  0
   -0.2819   11.2017  -10.8987 C   0  0  0  0  0  0
   -0.6644   11.4430   -9.7613 O   0  0  0  0  0  0
    1.1558   11.4600  -11.3684 C   0  0  0  0  0  0
    2.2812   10.8945  -10.4474 C   0  0  0  0  0  0
    3.6326   10.5371  -11.0928 C   0  0  0  0  0  0
    3.5160    9.4759  -12.1486 C   0  0  0  0  0  0
    2.6577    9.4264  -13.0188 O   0  0  0  0  0  0
    4.4892    8.5563  -12.0616 O   0  0  0  0  0  0
    2.5822   11.7493   -9.2101 C   0  0  0  0  0  0
    2.4755   11.3285   -8.0751 O   0  0  0  0  0  0
    3.0805   12.9779   -9.4619 O   0  0  0  0  0  0
   -1.4979    1.1485   -8.4311 H   0  0  0  0  0  0
   -2.9508    0.8554   -7.7798 H   0  0  0  0  0  0
   -2.7863   -2.3356  -10.9069 H   0  0  0  0  0  0
   -3.0998    1.7109  -13.6352 H   0  0  0  0  0  0
    3.4777    5.2450  -12.4693 H   0  0  0  0  0  0
   -2.3899    3.5339  -14.2765 H   0  0  0  0  0  0
   -8.2275    4.8158  -12.7880 H   0  0  0  0  0  0
    5.0199    8.7825  -11.2688 H   0  0  0  0  0  0
    3.2200   13.1876  -10.4121 H   0  0  0  0  0  0
  1  2  1  0  0  0
  2  3  1  0  0  0
  3  4  1  0  0  0
  4  5  1  0  0  0
  5  6  1  0  0  0
  5  7  1  0  0  0
  7  8  1  0  0  0
  7 39  1  0  0  0
  8  9  1  0  0  0
  8 27  1  0  0  0
  9 10  1  0  0  0
 10 11  1  0  0  0
 10 12  1  0  0  0
 12 13  1  0  0  0
 13 14  1  0  0  0
 13 26  1  0  0  0
 14 15  1  0  0  0
 15 16  1  0  0  0
 16 17  1  0  0  0
 17 18  1  0  0  0
 18 19  1  0  0  0
 18 25  1  0  0  0
 19 20  1  0  0  0
 20 21  1  0  0  0
 20 24  1  0  0  0
 21 22  1  0  0  0
 21 23  1  0  0  0
 23 51  1  0  0  0
 23 52  1  0  0  0
 24 53  1  0  0  0
 25 54  1  0  0  0
 26 55  1  0  0  0
 27 28  1  0  0  0
 28 29  2  0  0  0
 28 30  1  0  0  0
 30 31  1  0  0  0
 31 32  1  0  0  0
 31 36  1  0  0  0
 32 33  1  0  0  0
 33 34  2  0  0  0
 33 35  1  0  0  0
 35 56  1  0  0  0
 36 37  2  0  0  0
 36 38  1  0  0  0
 38 57  1  0  0  0
 39 40  1  0  0  0
 40 41  2  0  0  0
 40 42  1  0  0  0
 42 43  1  0  0  0
 43 44  1  0  0  0
 43 48  1  0  0  0
 44 45  1  0  0  0
 45 46  2  0  0  0
 45 47  1  0  0  0
 47 58  1  0  0  0
 48 49  2  0  0  0
 48 50  1  0  0  0
 50 59  1  0  0  0
M  END
>  <AUTHOR>
    GENERATED BY OPEN BABEL 2.4.1

>  <CHROM.1>
179.31519702,-174.04390756,138.24774743,108.23960984,165.71328983,85.43734949
12.32284362,143.84751122,88.52720608,-118.38759410,81.85790484,-44.02127872
173.86543904,-159.53342747,-57.31919206,-144.24133022,-35.12519203,-62.35093410
-60.08391053,155.95821961,171.24322971,-60.00522532,-76.89312257,-80.20810197
166.86516144,162.31879916,-48.04629042,-16.43393416,-66.38471416,-179.56326161
-10.26413921,-5.34746904,-130.17105868,152.86487859,-60.63675709,120.50714461
44.18845373,3.58787552,-1.49955634,-1.81410910,6.71168075,-11.49181709,1.27920335
-0.02071278,0.08296456

>  <COMPND>
    UNNAMED

>  <MASTER>
        0    0    0    0    0    0    0    0  109    0  109    0

>  <Name>
FB1.pdb

>  <RI>
0

>  <Rbt.Current_Directory>
/home/fc/tossine/FB1_39/p3/3_clust03

>  <Rbt.Executable>
rbdock/0.1.0

>  <Rbt.Library>
librxdock.so/0.1.0

>  <Rbt.Parameter_File>
/cluster/rxdock/data/scripts/dock.prm

>  <Rbt.Receptor>
rx_3.prm

>  <SCORE>
29.7459

>  <SCORE.INTER>
7.42507

>  <SCORE.INTER.CONST>
1

>  <SCORE.INTER.POLAR>
-1.0198

>  <SCORE.INTER.REPUL>
0.295189

>  <SCORE.INTER.ROT>
32

>  <SCORE.INTER.VDW>
-27.9835

>  <SCORE.INTER.norm>
0.148501

>  <SCORE.INTRA>
21.1015

>  <SCORE.INTRA.DIHEDRAL>
38.8163

>  <SCORE.INTRA.DIHEDRAL.0>
47.3121

>  <SCORE.INTRA.POLAR>
0.494935

>  <SCORE.INTRA.POLAR.0>
-1.47808

>  <SCORE.INTRA.REPUL>
0.00167844

>  <SCORE.INTRA.REPUL.0>
0

>  <SCORE.INTRA.VDW>
0.00217839

>  <SCORE.INTRA.VDW.0>
-2.78316

>  <SCORE.INTRA.norm>
0.42203

>  <SCORE.RESTR>
1.21933

>  <SCORE.RESTR.CAVITY>
1.21933

>  <SCORE.RESTR.norm>
0.0243866

>  <SCORE.SYSTEM>
0

>  <SCORE.SYSTEM.CONST>
0

>  <SCORE.SYSTEM.DIHEDRAL>
0

>  <SCORE.SYSTEM.norm>
0

>  <SCORE.heavy>
50

>  <SCORE.norm>
0.594918

$$$$
