FB1.pdb
  RxDock  10072016033D
librxdock.so/0.1.0
 59 58  0  0  0  0  0  0  0  0999 V2000
   -9.5116    2.3724  -14.0323 C   0  0  0  0  0  0
   -8.7292    3.5946  -14.5069 C   0  0  0  0  0  0
   -7.2226    3.3032  -14.6051 C   0  0  0  0  0  0
   -6.3699    4.1135  -13.5972 C   0  0  0  0  0  0
   -4.8395    3.7695  -13.5986 C   0  0  0  0  0  0
   -4.1459    4.6456  -14.6673 C   0  0  0  0  0  0
   -4.1486    3.9497  -12.1815 C   0  0  0  0  0  0
   -4.5296    5.2651  -11.3504 C   0  0  0  0  0  0
   -5.4465    5.2932  -10.0517 C   0  0  0  0  0  0
   -6.4788    6.5761   -9.9519 C   0  0  0  0  0  0
   -7.0675    6.8340  -11.3379 C   0  0  0  0  0  0
   -7.6580    6.4484   -8.8851 C   0  0  0  0  0  0
   -9.0549    7.2603   -8.9749 C   0  0  0  0  0  0
  -10.1670    6.9057  -10.0206 C   0  0  0  0  0  0
  -10.3857    5.3710  -10.4026 C   0  0  0  0  0  0
   -9.5335    4.5936  -11.4815 C   0  0  0  0  0  0
   -8.2220    3.8836  -11.0532 C   0  0  0  0  0  0
   -8.1989    2.3108  -11.1752 C   0  0  0  0  0  0
   -6.8202    1.6635  -11.3560 C   0  0  0  0  0  0
   -6.7544    0.2092  -11.9026 C   0  0  0  0  0  0
   -5.4597   -0.3213  -12.5866 C   0  0  0  0  0  0
   -4.2664   -0.5726  -11.6755 C   0  0  0  0  0  0
   -5.7507   -1.5077  -13.4138 N   0  0  0  0  0  0
   -6.9330   -0.6312  -10.7340 O   0  0  0  0  0  0
   -8.8055    1.7675   -9.9976 O   0  0  0  0  0  0
   -9.6739    7.0737   -7.6909 O   0  0  0  0  0  0
   -3.2719    5.8495  -10.9156 O   0  0  0  0  0  0
   -2.7065    6.7752  -11.7335 C   0  0  0  0  0  0
   -3.1953    7.2319  -12.7493 O   0  0  0  0  0  0
   -1.4090    7.2235  -11.1196 C   0  0  0  0  0  0
   -0.9162    8.5619  -11.6926 C   0  0  0  0  0  0
   -1.9270    9.6976  -11.4885 C   0  0  0  0  0  0
   -2.2224    9.9072  -10.0215 C   0  0  0  0  0  0
   -3.1699    9.3900   -9.4397 O   0  0  0  0  0  0
   -1.3446   10.7161   -9.4099 O   0  0  0  0  0  0
    0.3901    8.8820  -10.9529 C   0  0  0  0  0  0
    1.4389    9.1297  -11.5283 O   0  0  0  0  0  0
    0.2990    8.8193   -9.6174 O   0  0  0  0  0  0
   -4.2778    2.7198  -11.3626 O   0  0  0  0  0  0
   -3.4982    2.6012  -10.2241 C   0  0  0  0  0  0
   -2.5013    3.2716   -9.9898 O   0  0  0  0  0  0
   -4.0228    1.5225   -9.2671 C   0  0  0  0  0  0
   -2.9363    0.7488   -8.4576 C   0  0  0  0  0  0
   -2.9989   -0.7896   -8.4498 C   0  0  0  0  0  0
   -2.5892   -1.3866   -7.1345 C   0  0  0  0  0  0
   -3.3288   -1.5885   -6.1812 O   0  0  0  0  0  0
   -1.2876   -1.7107   -7.1013 O   0  0  0  0  0  0
   -1.4919    1.1415   -8.7918 C   0  0  0  0  0  0
   -1.0415    2.2489   -8.5737 O   0  0  0  0  0  0
   -0.7106    0.1411   -9.2501 O   0  0  0  0  0  0
   -4.9536   -1.6958  -14.0202 H   0  0  0  0  0  0
   -6.5184   -1.2818  -14.0503 H   0  0  0  0  0  0
   -7.8364   -0.4219  -10.4154 H   0  0  0  0  0  0
   -9.6705    2.1999   -9.8739 H   0  0  0  0  0  0
  -10.4096    7.7045   -7.6172 H   0  0  0  0  0  0
   -1.4875   10.8373   -8.4515 H   0  0  0  0  0  0
    1.1368    9.0376   -9.1385 H   0  0  0  0  0  0
   -1.0930   -2.0002   -6.1850 H   0  0  0  0  0  0
    0.2173    0.3930   -9.4540 H   0  0  0  0  0  0
  1  2  1  0  0  0
  2  3  1  0  0  0
  3  4  1  0  0  0
  4  5  1  0  0  0
  5  6  1  0  0  0
  5  7  1  0  0  0
  7  8  1  0  0  0
  7 39  1  0  0  0
  8  9  1  0  0  0
  8 27  1  0  0  0
  9 10  1  0  0  0
 10 11  1  0  0  0
 10 12  1  0  0  0
 12 13  1  0  0  0
 13 14  1  0  0  0
 13 26  1  0  0  0
 14 15  1  0  0  0
 15 16  1  0  0  0
 16 17  1  0  0  0
 17 18  1  0  0  0
 18 19  1  0  0  0
 18 25  1  0  0  0
 19 20  1  0  0  0
 20 21  1  0  0  0
 20 24  1  0  0  0
 21 22  1  0  0  0
 21 23  1  0  0  0
 23 51  1  0  0  0
 23 52  1  0  0  0
 24 53  1  0  0  0
 25 54  1  0  0  0
 26 55  1  0  0  0
 27 28  1  0  0  0
 28 29  2  0  0  0
 28 30  1  0  0  0
 30 31  1  0  0  0
 31 32  1  0  0  0
 31 36  1  0  0  0
 32 33  1  0  0  0
 33 34  2  0  0  0
 33 35  1  0  0  0
 35 56  1  0  0  0
 36 37  2  0  0  0
 36 38  1  0  0  0
 38 57  1  0  0  0
 39 40  1  0  0  0
 40 41  2  0  0  0
 40 42  1  0  0  0
 42 43  1  0  0  0
 43 44  1  0  0  0
 43 48  1  0  0  0
 44 45  1  0  0  0
 45 46  2  0  0  0
 45 47  1  0  0  0
 47 58  1  0  0  0
 48 49  2  0  0  0
 48 50  1  0  0  0
 50 59  1  0  0  0
M  END
>  <AUTHOR>
    GENERATED BY OPEN BABEL 2.4.1

>  <CHROM.1>
-114.32499307,175.91452264,87.41220808,-43.45603864,107.53759426,166.55543400
-140.89981720,91.42303158,40.76707478,-156.16829639,73.01169171,35.49546934
166.97751899,-83.47897284,88.46970925,115.16688330,154.25108546,-161.85059063
51.61880979,157.75130642,71.16773221,63.57383190,166.31102285,5.49841941
-161.31772756,58.86216809,59.10119161,126.34288705,-94.46575110,-177.34296239
-179.19866455,-17.41374638,146.63230596,-130.40782388,-144.09089778,64.67591686
87.35904093,174.15785287,-179.34438852,-4.67824980,4.08667595,-10.69967073
2.00478825,0.25810253,3.01042526

>  <COMPND>
    UNNAMED

>  <MASTER>
        0    0    0    0    0    0    0    0  109    0  109    0

>  <Name>
FB1.pdb

>  <RI>
0

>  <Rbt.Current_Directory>
/home/fc/tossine/FB1_39/p3/3_clust03

>  <Rbt.Executable>
rbdock/0.1.0

>  <Rbt.Library>
librxdock.so/0.1.0

>  <Rbt.Parameter_File>
/cluster/rxdock/data/scripts/dock.prm

>  <Rbt.Receptor>
rx_1.prm

>  <SCORE>
38.1091

>  <SCORE.INTER>
20.0234

>  <SCORE.INTER.CONST>
1

>  <SCORE.INTER.POLAR>
-2.69204

>  <SCORE.INTER.REPUL>
1.35565

>  <SCORE.INTER.ROT>
32

>  <SCORE.INTER.VDW>
-15.0019

>  <SCORE.INTER.norm>
0.400468

>  <SCORE.INTRA>
15.9731

>  <SCORE.INTRA.DIHEDRAL>
23.77

>  <SCORE.INTRA.DIHEDRAL.0>
47.3121

>  <SCORE.INTRA.POLAR>
1.36691

>  <SCORE.INTRA.POLAR.0>
-1.47808

>  <SCORE.INTRA.REPUL>
0

>  <SCORE.INTRA.REPUL.0>
0

>  <SCORE.INTRA.VDW>
-0.559411

>  <SCORE.INTRA.VDW.0>
-2.78316

>  <SCORE.INTRA.norm>
0.319462

>  <SCORE.RESTR>
2.1126

>  <SCORE.RESTR.CAVITY>
2.1126

>  <SCORE.RESTR.norm>
0.0422519

>  <SCORE.SYSTEM>
0

>  <SCORE.SYSTEM.CONST>
0

>  <SCORE.SYSTEM.DIHEDRAL>
0

>  <SCORE.SYSTEM.norm>
0

>  <SCORE.heavy>
50

>  <SCORE.norm>
0.762181

$$$$
