FB1.pdb
  RxDock  10072017473D
librxdock.so/0.1.0
 59 58  0  0  0  0  0  0  0  0999 V2000
    3.0749   10.8815  -12.0980 C   0  0  0  0  0  0
    2.5295   10.0185  -10.9626 C   0  0  0  0  0  0
    2.8226    8.5264  -11.1902 C   0  0  0  0  0  0
    1.5856    7.6162  -10.9878 C   0  0  0  0  0  0
    0.2194    8.2490  -11.4279 C   0  0  0  0  0  0
    0.1564    8.2421  -12.9728 C   0  0  0  0  0  0
   -1.0455    7.5210  -10.8051 C   0  0  0  0  0  0
   -1.0987    5.9248  -10.9299 C   0  0  0  0  0  0
   -0.7686    4.9038   -9.7566 C   0  0  0  0  0  0
   -0.4276    3.3650  -10.2437 C   0  0  0  0  0  0
   -0.2514    2.4912   -9.0029 C   0  0  0  0  0  0
   -1.4848    2.6887  -11.2285 C   0  0  0  0  0  0
   -2.9806    2.2515  -10.7926 C   0  0  0  0  0  0
   -3.2746    1.4700   -9.4663 C   0  0  0  0  0  0
   -2.6452    0.0134   -9.2901 C   0  0  0  0  0  0
   -2.2576   -0.9383  -10.4896 C   0  0  0  0  0  0
   -2.2741   -0.3863  -11.9396 C   0  0  0  0  0  0
   -3.6516   -0.4568  -12.7057 C   0  0  0  0  0  0
   -4.8422    0.2323  -12.0275 C   0  0  0  0  0  0
   -5.5755   -0.5212  -10.8818 C   0  0  0  0  0  0
   -6.8483    0.0873  -10.2221 C   0  0  0  0  0  0
   -7.5977   -0.8066   -9.2440 C   0  0  0  0  0  0
   -6.5499    1.3987   -9.6156 N   0  0  0  0  0  0
   -6.0223   -1.7624  -11.4850 O   0  0  0  0  0  0
   -3.4669    0.1247  -14.0009 O   0  0  0  0  0  0
   -3.7054    3.4868  -10.6688 O   0  0  0  0  0  0
   -2.4578    5.5931  -11.3239 O   0  0  0  0  0  0
   -2.8365    5.9366  -12.5824 C   0  0  0  0  0  0
   -2.0954    6.2092  -13.5075 O   0  0  0  0  0  0
   -4.3333    5.8260  -12.6759 C   0  0  0  0  0  0
   -4.8006    4.3981  -13.0004 C   0  0  0  0  0  0
   -6.2961    4.3301  -13.3357 C   0  0  0  0  0  0
   -7.0995    3.8504  -12.1492 C   0  0  0  0  0  0
   -7.8601    2.8894  -12.1889 O   0  0  0  0  0  0
   -6.9006    4.5778  -11.0400 O   0  0  0  0  0  0
   -3.9701    3.9471  -14.2099 C   0  0  0  0  0  0
   -4.1672    4.3559  -15.3441 O   0  0  0  0  0  0
   -3.0380    3.0263  -13.9283 O   0  0  0  0  0  0
   -1.2958    7.9771   -9.4161 O   0  0  0  0  0  0
   -1.8089    9.2487   -9.2224 C   0  0  0  0  0  0
   -2.8233    9.5007   -8.5853 O   0  0  0  0  0  0
   -0.9587   10.3310   -9.9007 C   0  0  0  0  0  0
   -1.7439   11.5588  -10.4581 C   0  0  0  0  0  0
   -1.2651   12.9661  -10.0573 C   0  0  0  0  0  0
   -1.1343   13.1402   -8.5717 C   0  0  0  0  0  0
   -0.3417   13.8817   -8.0072 O   0  0  0  0  0  0
   -2.0140   12.3926   -7.8879 O   0  0  0  0  0  0
   -1.9287   11.5598  -11.9806 C   0  0  0  0  0  0
   -3.0208   11.5388  -12.5132 O   0  0  0  0  0  0
   -0.7959   11.6941  -12.7016 O   0  0  0  0  0  0
   -7.2159    1.5792   -8.8657 H   0  0  0  0  0  0
   -6.7302    2.1280  -10.3093 H   0  0  0  0  0  0
   -6.8423   -1.5218  -11.9657 H   0  0  0  0  0  0
   -3.0402    0.9938  -13.8861 H   0  0  0  0  0  0
   -3.2462    4.0407  -10.0155 H   0  0  0  0  0  0
   -7.4171    4.2978  -10.2601 H   0  0  0  0  0  0
   -2.4986    2.7377  -14.7059 H   0  0  0  0  0  0
   -1.8472   12.5615   -6.9366 H   0  0  0  0  0  0
   -0.9209   11.7366  -13.6757 H   0  0  0  0  0  0
  1  2  1  0  0  0
  2  3  1  0  0  0
  3  4  1  0  0  0
  4  5  1  0  0  0
  5  6  1  0  0  0
  5  7  1  0  0  0
  7  8  1  0  0  0
  7 39  1  0  0  0
  8  9  1  0  0  0
  8 27  1  0  0  0
  9 10  1  0  0  0
 10 11  1  0  0  0
 10 12  1  0  0  0
 12 13  1  0  0  0
 13 14  1  0  0  0
 13 26  1  0  0  0
 14 15  1  0  0  0
 15 16  1  0  0  0
 16 17  1  0  0  0
 17 18  1  0  0  0
 18 19  1  0  0  0
 18 25  1  0  0  0
 19 20  1  0  0  0
 20 21  1  0  0  0
 20 24  1  0  0  0
 21 22  1  0  0  0
 21 23  1  0  0  0
 23 51  1  0  0  0
 23 52  1  0  0  0
 24 53  1  0  0  0
 25 54  1  0  0  0
 26 55  1  0  0  0
 27 28  1  0  0  0
 28 29  2  0  0  0
 28 30  1  0  0  0
 30 31  1  0  0  0
 31 32  1  0  0  0
 31 36  1  0  0  0
 32 33  1  0  0  0
 33 34  2  0  0  0
 33 35  1  0  0  0
 35 56  1  0  0  0
 36 37  2  0  0  0
 36 38  1  0  0  0
 38 57  1  0  0  0
 39 40  1  0  0  0
 40 41  2  0  0  0
 40 42  1  0  0  0
 42 43  1  0  0  0
 43 44  1  0  0  0
 43 48  1  0  0  0
 44 45  1  0  0  0
 45 46  2  0  0  0
 45 47  1  0  0  0
 47 58  1  0  0  0
 48 49  2  0  0  0
 48 50  1  0  0  0
 50 59  1  0  0  0
M  END
>  <AUTHOR>
    GENERATED BY OPEN BABEL 2.4.1

>  <CHROM.1>
-131.71251407,34.64241575,74.65282398,-49.39518592,102.51968498,72.78518992
-161.30118654,69.65110871,-175.28939199,-69.04623299,-45.78528289,-62.56034033
-57.83260126,-25.80296147,9.66533700,-87.13368762,56.44876822,-80.19517850
-50.45793919,-175.87847616,172.08040681,-80.81473007,-154.72505311,17.96460794
-85.01722334,-170.03415507,-100.18536890,-74.45920550,-125.11572963,179.17043621
-179.70670691,125.47557455,146.38905590,128.77341147,-52.95358412,118.92842299
150.02376642,179.28590902,-177.26609482,-2.65968717,5.50209126,-11.18784385
-1.16452405,0.04378744,-3.06177174

>  <COMPND>
    UNNAMED

>  <MASTER>
        0    0    0    0    0    0    0    0  109    0  109    0

>  <Name>
FB1.pdb

>  <RI>
0

>  <Rbt.Current_Directory>
/home/fc/tossine/FB1_39/p3/3_clust03

>  <Rbt.Executable>
rbdock/0.1.0

>  <Rbt.Library>
librxdock.so/0.1.0

>  <Rbt.Parameter_File>
/cluster/rxdock/data/scripts/dock.prm

>  <Rbt.Receptor>
rx_3.prm

>  <SCORE>
39.1235

>  <SCORE.INTER>
28.0697

>  <SCORE.INTER.CONST>
1

>  <SCORE.INTER.POLAR>
-0.851496

>  <SCORE.INTER.REPUL>
0.0926035

>  <SCORE.INTER.ROT>
32

>  <SCORE.INTER.VDW>
-6.89822

>  <SCORE.INTER.norm>
0.561394

>  <SCORE.INTRA>
10.8414

>  <SCORE.INTRA.DIHEDRAL>
26.6891

>  <SCORE.INTRA.DIHEDRAL.0>
47.3121

>  <SCORE.INTRA.POLAR>
0.478077

>  <SCORE.INTRA.POLAR.0>
-1.47808

>  <SCORE.INTRA.REPUL>
0

>  <SCORE.INTRA.REPUL.0>
0

>  <SCORE.INTRA.VDW>
-4.12866

>  <SCORE.INTRA.VDW.0>
-2.78316

>  <SCORE.INTRA.norm>
0.216827

>  <SCORE.RESTR>
0.212382

>  <SCORE.RESTR.CAVITY>
0.212382

>  <SCORE.RESTR.norm>
0.00424765

>  <SCORE.SYSTEM>
0

>  <SCORE.SYSTEM.CONST>
0

>  <SCORE.SYSTEM.DIHEDRAL>
0

>  <SCORE.SYSTEM.norm>
0

>  <SCORE.heavy>
50

>  <SCORE.norm>
0.782469

$$$$
