FB1.pdb
  RxDock  09132005383D
librxdock.so/0.1.0
 59 58  0  0  0  0  0  0  0  0999 V2000
   -8.4264    0.4621  -13.4383 C   0  0  0  0  0  0
   -7.1816   -0.2045  -12.8571 C   0  0  0  0  0  0
   -6.0253    0.7953  -12.6911 C   0  0  0  0  0  0
   -4.6836    0.1281  -12.2982 C   0  0  0  0  0  0
   -3.4431    1.0882  -12.2956 C   0  0  0  0  0  0
   -2.6839    0.9041  -13.6298 C   0  0  0  0  0  0
   -3.8219    2.6115  -12.0637 C   0  0  0  0  0  0
   -2.7805    3.4996  -11.2313 C   0  0  0  0  0  0
   -3.0624    4.9643  -10.6803 C   0  0  0  0  0  0
   -1.7234    5.9076  -10.4843 C   0  0  0  0  0  0
   -0.9238    5.8916  -11.7860 C   0  0  0  0  0  0
   -1.9855    7.4160  -10.0361 C   0  0  0  0  0  0
   -0.8542    8.3842   -9.4025 C   0  0  0  0  0  0
    0.4810    8.7188  -10.1519 C   0  0  0  0  0  0
    1.6173    9.5107   -9.3576 C   0  0  0  0  0  0
    1.4601   10.9868   -8.8182 C   0  0  0  0  0  0
    2.5694   11.5948   -7.9198 C   0  0  0  0  0  0
    2.6872   13.1681   -7.9113 C   0  0  0  0  0  0
    3.0203   13.8316   -9.2534 C   0  0  0  0  0  0
    2.0989   13.5363  -10.4708 C   0  0  0  0  0  0
    0.6686   14.1476  -10.5473 C   0  0  0  0  0  0
    0.5786   15.6128  -10.9502 C   0  0  0  0  0  0
   -0.2145   13.3149  -11.3859 N   0  0  0  0  0  0
    2.8056   14.0907  -11.6097 O   0  0  0  0  0  0
    1.4465   13.7013   -7.4359 O   0  0  0  0  0  0
   -1.5104    9.6504   -9.2217 O   0  0  0  0  0  0
   -2.4445    2.7280  -10.0463 O   0  0  0  0  0  0
   -3.4774    2.1888   -9.3480 C   0  0  0  0  0  0
   -4.6521    2.4840   -9.4582 O   0  0  0  0  0  0
   -2.9399    1.0850   -8.4795 C   0  0  0  0  0  0
   -3.1828   -0.3093   -9.0791 C   0  0  0  0  0  0
   -2.2046   -0.6407  -10.2135 C   0  0  0  0  0  0
   -0.8269   -0.0922   -9.9230 C   0  0  0  0  0  0
   -0.3684    0.9096  -10.4613 O   0  0  0  0  0  0
   -0.1480   -0.8071   -9.0137 O   0  0  0  0  0  0
   -3.0026   -1.3029   -7.9231 C   0  0  0  0  0  0
   -2.8228   -0.9544   -6.7661 O   0  0  0  0  0  0
   -3.0091   -2.5905   -8.2945 O   0  0  0  0  0  0
   -4.2151    3.2651  -13.3357 O   0  0  0  0  0  0
   -5.5262    3.6865  -13.4823 C   0  0  0  0  0  0
   -6.0531    3.9637  -14.5519 O   0  0  0  0  0  0
   -6.2657    3.7714  -12.1406 C   0  0  0  0  0  0
   -6.0455    5.0849  -11.3277 C   0  0  0  0  0  0
   -6.1484    6.4256  -12.0778 C   0  0  0  0  0  0
   -7.5462    6.7411  -12.5261 C   0  0  0  0  0  0
   -8.1069    7.8219  -12.4069 O   0  0  0  0  0  0
   -8.1463    5.6933  -13.1111 O   0  0  0  0  0  0
   -6.9072    5.2053  -10.0647 C   0  0  0  0  0  0
   -6.4922    5.6774   -9.0248 O   0  0  0  0  0  0
   -8.2008    4.8492  -10.2099 O   0  0  0  0  0  0
   -1.0675   13.8337  -11.5905 H   0  0  0  0  0  0
   -0.5218   12.5090  -10.8367 H   0  0  0  0  0  0
    3.6264   13.5583  -11.6737 H   0  0  0  0  0  0
    0.7290   13.3430   -7.9903 H   0  0  0  0  0  0
   -1.0383   10.1371   -8.5255 H   0  0  0  0  0  0
   -0.6323   -1.5648   -8.6332 H   0  0  0  0  0  0
   -3.1466   -2.7372   -9.2632 H   0  0  0  0  0  0
   -9.0443    5.9912  -13.3685 H   0  0  0  0  0  0
   -8.7443    4.8998   -9.3924 H   0  0  0  0  0  0
  1  2  1  0  0  0
  2  3  1  0  0  0
  3  4  1  0  0  0
  4  5  1  0  0  0
  5  6  1  0  0  0
  5  7  1  0  0  0
  7  8  1  0  0  0
  7 39  1  0  0  0
  8  9  1  0  0  0
  8 27  1  0  0  0
  9 10  1  0  0  0
 10 11  1  0  0  0
 10 12  1  0  0  0
 12 13  1  0  0  0
 13 14  1  0  0  0
 13 26  1  0  0  0
 14 15  1  0  0  0
 15 16  1  0  0  0
 16 17  1  0  0  0
 17 18  1  0  0  0
 18 19  1  0  0  0
 18 25  1  0  0  0
 19 20  1  0  0  0
 20 21  1  0  0  0
 20 24  1  0  0  0
 21 22  1  0  0  0
 21 23  1  0  0  0
 23 51  1  0  0  0
 23 52  1  0  0  0
 24 53  1  0  0  0
 25 54  1  0  0  0
 26 55  1  0  0  0
 27 28  1  0  0  0
 28 29  2  0  0  0
 28 30  1  0  0  0
 30 31  1  0  0  0
 31 32  1  0  0  0
 31 36  1  0  0  0
 32 33  1  0  0  0
 33 34  2  0  0  0
 33 35  1  0  0  0
 35 56  1  0  0  0
 36 37  2  0  0  0
 36 38  1  0  0  0
 38 57  1  0  0  0
 39 40  1  0  0  0
 40 41  2  0  0  0
 40 42  1  0  0  0
 42 43  1  0  0  0
 43 44  1  0  0  0
 43 48  1  0  0  0
 44 45  1  0  0  0
 45 46  2  0  0  0
 45 47  1  0  0  0
 47 58  1  0  0  0
 48 49  2  0  0  0
 48 50  1  0  0  0
 50 59  1  0  0  0
M  END
>  <AUTHOR>
    GENERATED BY OPEN BABEL 2.4.1

>  <CHROM.1>
-171.70814057,172.66234453,-98.36980492,145.48135050,-169.37419799,113.78755386
-153.43428038,-47.83887248,51.69181701,162.54252680,57.73331814,-171.40020102
156.10563342,-64.31154791,172.98685832,155.10804972,-61.71812762,55.43562973
-54.81439287,72.53235073,77.51670507,64.33379206,-167.42754348,-14.78678064
-100.39752450,77.26374189,37.12132020,5.76571422,-103.92634539,-2.05906933
-1.12450609,-163.22560746,83.25833572,46.28608548,68.82459643,141.21955573
134.55419120,-179.94971925,178.13448603,-2.78014417,5.40167495,-10.61926182
2.08625857,0.45960063,2.99846659

>  <COMPND>
    UNNAMED

>  <MASTER>
        0    0    0    0    0    0    0    0  109    0  109    0

>  <Name>
FB1.pdb

>  <RI>
0

>  <Rbt.Current_Directory>
/home/fc/tossine/FB1_39/p3/3_clust03

>  <Rbt.Executable>
rbdock/0.1.0

>  <Rbt.Library>
librxdock.so/0.1.0

>  <Rbt.Parameter_File>
/cluster/rxdock/data/scripts/dock.prm

>  <Rbt.Receptor>
rx_2.prm

>  <SCORE>
27.5166

>  <SCORE.INTER>
17.7296

>  <SCORE.INTER.CONST>
1

>  <SCORE.INTER.POLAR>
-0.911137

>  <SCORE.INTER.REPUL>
0.648896

>  <SCORE.INTER.ROT>
32

>  <SCORE.INTER.VDW>
-19.817

>  <SCORE.INTER.norm>
0.354591

>  <SCORE.INTRA>
8.34977

>  <SCORE.INTRA.DIHEDRAL>
-0.620779

>  <SCORE.INTRA.DIHEDRAL.0>
47.3121

>  <SCORE.INTRA.POLAR>
1.47808

>  <SCORE.INTRA.POLAR.0>
-1.47808

>  <SCORE.INTRA.REPUL>
0

>  <SCORE.INTRA.REPUL.0>
0

>  <SCORE.INTRA.VDW>
3.6347

>  <SCORE.INTRA.VDW.0>
-2.78316

>  <SCORE.INTRA.norm>
0.166995

>  <SCORE.RESTR>
1.43726

>  <SCORE.RESTR.CAVITY>
1.43726

>  <SCORE.RESTR.norm>
0.0287451

>  <SCORE.SYSTEM>
0

>  <SCORE.SYSTEM.CONST>
0

>  <SCORE.SYSTEM.DIHEDRAL>
0

>  <SCORE.SYSTEM.norm>
0

>  <SCORE.heavy>
50

>  <SCORE.norm>
0.550332

$$$$
