FB1.pdb
  RxDock  10072017393D
librxdock.so/0.1.0
 59 58  0  0  0  0  0  0  0  0999 V2000
   -1.6819   13.7508  -11.1098 C   0  0  0  0  0  0
   -2.4520   13.5184  -12.4075 C   0  0  0  0  0  0
   -3.0847   12.1177  -12.4512 C   0  0  0  0  0  0
   -4.2089   11.9150  -11.4048 C   0  0  0  0  0  0
   -3.7110   11.6757   -9.9368 C   0  0  0  0  0  0
   -4.9488   11.5413   -9.0201 C   0  0  0  0  0  0
   -2.7562   10.4169   -9.7892 C   0  0  0  0  0  0
   -2.9997    9.1988  -10.8007 C   0  0  0  0  0  0
   -1.9186    8.0977  -11.1842 C   0  0  0  0  0  0
   -0.7320    7.8622  -10.0627 C   0  0  0  0  0  0
   -1.3884    7.5176   -8.7269 C   0  0  0  0  0  0
    0.3644    6.7599  -10.4201 C   0  0  0  0  0  0
    0.7576    6.3266  -11.9288 C   0  0  0  0  0  0
   -0.3178    5.9159  -12.9922 C   0  0  0  0  0  0
   -1.5712    5.0536  -12.5077 C   0  0  0  0  0  0
   -2.6829    4.4817  -13.4730 C   0  0  0  0  0  0
   -2.4632    3.1103  -14.1645 C   0  0  0  0  0  0
   -2.2657    1.8653  -13.2157 C   0  0  0  0  0  0
   -1.0220    1.8855  -12.3183 C   0  0  0  0  0  0
   -1.1214    1.2423  -10.9060 C   0  0  0  0  0  0
   -0.4279   -0.1195  -10.6060 C   0  0  0  0  0  0
   -0.5810   -0.6606   -9.1914 C   0  0  0  0  0  0
   -0.8121   -1.1359  -11.6039 N   0  0  0  0  0  0
   -0.4766    2.1947  -10.0222 O   0  0  0  0  0  0
   -3.4254    1.7560  -12.3833 O   0  0  0  0  0  0
    1.4143    7.4782  -12.4847 O   0  0  0  0  0  0
   -4.1127    8.4370  -10.2590 O   0  0  0  0  0  0
   -4.6684    7.4972  -11.0672 C   0  0  0  0  0  0
   -4.1957    7.0682  -12.1026 O   0  0  0  0  0  0
   -5.9273    6.9941  -10.4166 C   0  0  0  0  0  0
   -6.0056    5.4593  -10.3904 C   0  0  0  0  0  0
   -4.7635    4.8172   -9.7592 C   0  0  0  0  0  0
   -4.6563    3.3565  -10.1311 C   0  0  0  0  0  0
   -5.6074    2.6815  -10.5100 O   0  0  0  0  0  0
   -3.4149    2.8638  -10.0091 O   0  0  0  0  0  0
   -7.2524    5.1145   -9.5642 C   0  0  0  0  0  0
   -7.6413    5.7958   -8.6277 O   0  0  0  0  0  0
   -7.8555    3.9729   -9.9233 O   0  0  0  0  0  0
   -1.3315   10.8273   -9.7485 O   0  0  0  0  0  0
   -0.9559   11.8165   -8.8550 C   0  0  0  0  0  0
   -1.6820   12.2831   -7.9870 O   0  0  0  0  0  0
    0.4923   12.2765   -9.0682 C   0  0  0  0  0  0
    1.5960   11.2707   -8.6157 C   0  0  0  0  0  0
    1.9871   10.1411   -9.5860 C   0  0  0  0  0  0
    1.8651   10.5388  -11.0288 C   0  0  0  0  0  0
    2.5996   11.3195  -11.6183 O   0  0  0  0  0  0
    0.8466    9.9216  -11.6468 O   0  0  0  0  0  0
    2.8970   11.9254   -8.1349 C   0  0  0  0  0  0
    3.2815   11.8629   -6.9839 O   0  0  0  0  0  0
    3.6519   12.4913   -9.0999 O   0  0  0  0  0  0
   -0.4822   -0.8434  -12.5226 H   0  0  0  0  0  0
   -1.8316   -1.1482  -11.6817 H   0  0  0  0  0  0
    0.4829    2.0338  -10.1441 H   0  0  0  0  0  0
   -4.2088    1.6909  -12.9601 H   0  0  0  0  0  0
    2.1983    7.6682  -11.9427 H   0  0  0  0  0  0
   -2.7412    3.5022   -9.7057 H   0  0  0  0  0  0
   -7.3172    3.3943  -10.5185 H   0  0  0  0  0  0
    0.8827   10.1931  -12.5883 H   0  0  0  0  0  0
    3.2507   12.4970   -9.9973 H   0  0  0  0  0  0
  1  2  1  0  0  0
  2  3  1  0  0  0
  3  4  1  0  0  0
  4  5  1  0  0  0
  5  6  1  0  0  0
  5  7  1  0  0  0
  7  8  1  0  0  0
  7 39  1  0  0  0
  8  9  1  0  0  0
  8 27  1  0  0  0
  9 10  1  0  0  0
 10 11  1  0  0  0
 10 12  1  0  0  0
 12 13  1  0  0  0
 13 14  1  0  0  0
 13 26  1  0  0  0
 14 15  1  0  0  0
 15 16  1  0  0  0
 16 17  1  0  0  0
 17 18  1  0  0  0
 18 19  1  0  0  0
 18 25  1  0  0  0
 19 20  1  0  0  0
 20 21  1  0  0  0
 20 24  1  0  0  0
 21 22  1  0  0  0
 21 23  1  0  0  0
 23 51  1  0  0  0
 23 52  1  0  0  0
 24 53  1  0  0  0
 25 54  1  0  0  0
 26 55  1  0  0  0
 27 28  1  0  0  0
 28 29  2  0  0  0
 28 30  1  0  0  0
 30 31  1  0  0  0
 31 32  1  0  0  0
 31 36  1  0  0  0
 32 33  1  0  0  0
 33 34  2  0  0  0
 33 35  1  0  0  0
 35 56  1  0  0  0
 36 37  2  0  0  0
 36 38  1  0  0  0
 38 57  1  0  0  0
 39 40  1  0  0  0
 40 41  2  0  0  0
 40 42  1  0  0  0
 42 43  1  0  0  0
 43 44  1  0  0  0
 43 48  1  0  0  0
 44 45  1  0  0  0
 45 46  2  0  0  0
 45 47  1  0  0  0
 47 58  1  0  0  0
 48 49  2  0  0  0
 48 50  1  0  0  0
 50 59  1  0  0  0
M  END
>  <AUTHOR>
    GENERATED BY OPEN BABEL 2.4.1

>  <CHROM.1>
66.78858526,-77.05233648,178.12570563,-30.54152955,157.85865393,51.08527373
24.48036326,168.08121424,55.90118971,25.98697394,-51.06856257,-38.28413629
60.26289122,-175.65779654,86.30960719,59.90445299,-63.66870816,146.01349029
56.41674182,106.96703636,179.77550310,-79.45803722,63.25978054,13.48267500
-131.46553077,53.49904287,-161.97931300,-32.72994097,-21.23918079,-0.43295933
13.66092640,8.40008218,-72.77833421,83.02300640,31.83505975,113.60311323
71.28617409,-176.24000313,5.34067059,-1.89484141,7.25416754,-10.60577949
1.25349727,0.02512990,0.13862098

>  <COMPND>
    UNNAMED

>  <MASTER>
        0    0    0    0    0    0    0    0  109    0  109    0

>  <Name>
FB1.pdb

>  <RI>
0

>  <Rbt.Current_Directory>
/home/fc/tossine/FB1_39/p3/3_clust03

>  <Rbt.Executable>
rbdock/0.1.0

>  <Rbt.Library>
librxdock.so/0.1.0

>  <Rbt.Parameter_File>
/cluster/rxdock/data/scripts/dock.prm

>  <Rbt.Receptor>
rx_3.prm

>  <SCORE>
5.35177

>  <SCORE.INTER>
4.71169

>  <SCORE.INTER.CONST>
1

>  <SCORE.INTER.POLAR>
-2.88544

>  <SCORE.INTER.REPUL>
0.483728

>  <SCORE.INTER.ROT>
32

>  <SCORE.INTER.VDW>
-25.2964

>  <SCORE.INTER.norm>
0.0942338

>  <SCORE.INTRA>
0.369717

>  <SCORE.INTRA.DIHEDRAL>
3.22705

>  <SCORE.INTRA.DIHEDRAL.0>
47.3121

>  <SCORE.INTRA.POLAR>
0.749512

>  <SCORE.INTRA.POLAR.0>
-1.47808

>  <SCORE.INTRA.REPUL>
0.00191748

>  <SCORE.INTRA.REPUL.0>
0

>  <SCORE.INTRA.VDW>
-3.80174

>  <SCORE.INTRA.VDW.0>
-2.78316

>  <SCORE.INTRA.norm>
0.00739434

>  <SCORE.RESTR>
0.270359

>  <SCORE.RESTR.CAVITY>
0.270359

>  <SCORE.RESTR.norm>
0.00540719

>  <SCORE.SYSTEM>
0

>  <SCORE.SYSTEM.CONST>
0

>  <SCORE.SYSTEM.DIHEDRAL>
0

>  <SCORE.SYSTEM.norm>
0

>  <SCORE.heavy>
50

>  <SCORE.norm>
0.107035

$$$$
