FB1.pdb
  RxDock  10072018263D
librxdock.so/0.1.0
 59 58  0  0  0  0  0  0  0  0999 V2000
   -2.9043    3.5031  -14.6788 C   0  0  0  0  0  0
   -2.3923    3.2256  -13.2674 C   0  0  0  0  0  0
   -1.4178    2.0366  -13.2387 C   0  0  0  0  0  0
   -2.1060    0.6684  -13.4716 C   0  0  0  0  0  0
   -3.5056    0.5061  -12.7824 C   0  0  0  0  0  0
   -4.2761   -0.6213  -13.5078 C   0  0  0  0  0  0
   -3.4149    0.2198  -11.2243 C   0  0  0  0  0  0
   -2.0957    0.7256  -10.4692 C   0  0  0  0  0  0
   -2.0163    1.9979   -9.5189 C   0  0  0  0  0  0
   -2.0874    3.4537  -10.2917 C   0  0  0  0  0  0
   -2.9362    4.4074   -9.4526 C   0  0  0  0  0  0
   -0.6873    4.1397  -10.6290 C   0  0  0  0  0  0
   -0.5062    5.3734  -11.6605 C   0  0  0  0  0  0
   -1.4009    6.6586  -11.5985 C   0  0  0  0  0  0
   -1.4915    7.4523  -10.2161 C   0  0  0  0  0  0
   -2.5426    8.5916   -9.9128 C   0  0  0  0  0  0
   -2.1619    9.7461   -8.9486 C   0  0  0  0  0  0
   -2.9724   11.0908   -9.1033 C   0  0  0  0  0  0
   -3.5292   11.3916  -10.5005 C   0  0  0  0  0  0
   -2.6023   12.1044  -11.5257 C   0  0  0  0  0  0
   -1.5718   11.2889  -12.3614 C   0  0  0  0  0  0
   -1.9099    9.8263  -12.6137 C   0  0  0  0  0  0
   -1.2534   11.9819  -13.6243 N   0  0  0  0  0  0
   -3.5078   12.6785  -12.5027 O   0  0  0  0  0  0
   -4.0632   11.0582   -8.1765 O   0  0  0  0  0  0
    0.8364    5.8402  -11.4461 O   0  0  0  0  0  0
   -1.6595   -0.3780   -9.6301 O   0  0  0  0  0  0
   -2.4671   -0.7212   -8.5932 C   0  0  0  0  0  0
   -3.6241   -0.3791   -8.4386 O   0  0  0  0  0  0
   -1.7239   -1.6847   -7.7096 C   0  0  0  0  0  0
   -2.3663   -3.0809   -7.6869 C   0  0  0  0  0  0
   -3.7864   -3.0660   -7.1068 C   0  0  0  0  0  0
   -3.7602   -2.8992   -5.6052 C   0  0  0  0  0  0
   -4.3609   -2.0106   -5.0109 O   0  0  0  0  0  0
   -3.0148   -3.8211   -4.9781 O   0  0  0  0  0  0
   -2.4002   -3.5534   -9.1469 C   0  0  0  0  0  0
   -2.2761   -2.7949  -10.0964 O   0  0  0  0  0  0
   -2.6273   -4.8654   -9.2984 O   0  0  0  0  0  0
   -4.6517    0.6502  -10.5279 O   0  0  0  0  0  0
   -5.4683    1.5802  -11.1494 C   0  0  0  0  0  0
   -5.8725    1.4923  -12.3015 O   0  0  0  0  0  0
   -5.8223    2.7547  -10.2278 C   0  0  0  0  0  0
   -6.6534    3.9021  -10.8815 C   0  0  0  0  0  0
   -6.0945    4.5660  -12.1533 C   0  0  0  0  0  0
   -5.1096    5.6605  -11.8593 C   0  0  0  0  0  0
   -5.0329    6.2892  -10.8126 O   0  0  0  0  0  0
   -4.2723    5.8860  -12.8831 O   0  0  0  0  0  0
   -8.1190    3.5478  -11.1622 C   0  0  0  0  0  0
   -9.0384    4.3067  -10.9272 O   0  0  0  0  0  0
   -8.3202    2.3710  -11.7915 O   0  0  0  0  0  0
   -0.6219   11.4010  -14.1741 H   0  0  0  0  0  0
   -0.7154   12.8241  -13.4081 H   0  0  0  0  0  0
   -4.1190   11.9470  -12.7322 H   0  0  0  0  0  0
   -4.6646   10.3374   -8.4398 H   0  0  0  0  0  0
    1.4451    5.1128  -11.6578 H   0  0  0  0  0  0
   -2.8512   -4.6396   -5.4848 H   0  0  0  0  0  0
   -2.7978   -5.1470  -10.2313 H   0  0  0  0  0  0
   -3.8291    6.7414  -12.7009 H   0  0  0  0  0  0
   -7.6324    1.6870  -11.6324 H   0  0  0  0  0  0
  1  2  1  0  0  0
  2  3  1  0  0  0
  3  4  1  0  0  0
  4  5  1  0  0  0
  5  6  1  0  0  0
  5  7  1  0  0  0
  7  8  1  0  0  0
  7 39  1  0  0  0
  8  9  1  0  0  0
  8 27  1  0  0  0
  9 10  1  0  0  0
 10 11  1  0  0  0
 10 12  1  0  0  0
 12 13  1  0  0  0
 13 14  1  0  0  0
 13 26  1  0  0  0
 14 15  1  0  0  0
 15 16  1  0  0  0
 16 17  1  0  0  0
 17 18  1  0  0  0
 18 19  1  0  0  0
 18 25  1  0  0  0
 19 20  1  0  0  0
 20 21  1  0  0  0
 20 24  1  0  0  0
 21 22  1  0  0  0
 21 23  1  0  0  0
 23 51  1  0  0  0
 23 52  1  0  0  0
 24 53  1  0  0  0
 25 54  1  0  0  0
 26 55  1  0  0  0
 27 28  1  0  0  0
 28 29  2  0  0  0
 28 30  1  0  0  0
 30 31  1  0  0  0
 31 32  1  0  0  0
 31 36  1  0  0  0
 32 33  1  0  0  0
 33 34  2  0  0  0
 33 35  1  0  0  0
 35 56  1  0  0  0
 36 37  2  0  0  0
 36 38  1  0  0  0
 38 57  1  0  0  0
 39 40  1  0  0  0
 40 41  2  0  0  0
 40 42  1  0  0  0
 42 43  1  0  0  0
 43 44  1  0  0  0
 43 48  1  0  0  0
 44 45  1  0  0  0
 45 46  2  0  0  0
 45 47  1  0  0  0
 47 58  1  0  0  0
 48 49  2  0  0  0
 48 50  1  0  0  0
 50 59  1  0  0  0
M  END
>  <AUTHOR>
    GENERATED BY OPEN BABEL 2.4.1

>  <CHROM.1>
-71.16235135,-39.08916572,158.95385056,24.94997032,104.67209171,-20.69104340
-72.58483518,-66.83307691,140.78997792,165.44621192,49.11397313,54.31948705
61.30432937,-168.10377880,-149.02562256,157.19804798,-28.11555988,-85.57442309
-64.92957746,82.80339611,26.58549301,-48.28523618,-176.64842792,14.88297015
-114.82427164,-62.86117459,-74.42164910,-17.57880186,124.86839997,-20.82982373
170.40564122,50.70186735,175.66167881,-55.20466886,-84.42868043,136.67106734
-22.60991833,166.08371003,28.04603355,-3.35160869,3.48291284,-10.54024976
1.52417950,-0.52883366,-0.24806904

>  <COMPND>
    UNNAMED

>  <MASTER>
        0    0    0    0    0    0    0    0  109    0  109    0

>  <Name>
FB1.pdb

>  <RI>
0

>  <Rbt.Current_Directory>
/home/fc/tossine/FB1_39/p3/3_clust03

>  <Rbt.Executable>
rbdock/0.1.0

>  <Rbt.Library>
librxdock.so/0.1.0

>  <Rbt.Parameter_File>
/cluster/rxdock/data/scripts/dock.prm

>  <Rbt.Receptor>
rx_4.prm

>  <SCORE>
56.1218

>  <SCORE.INTER>
31.0806

>  <SCORE.INTER.CONST>
1

>  <SCORE.INTER.POLAR>
-1.60072

>  <SCORE.INTER.REPUL>
0.081121

>  <SCORE.INTER.ROT>
32

>  <SCORE.INTER.VDW>
-1.28257

>  <SCORE.INTER.norm>
0.621612

>  <SCORE.INTRA>
24.2592

>  <SCORE.INTRA.DIHEDRAL>
31.6444

>  <SCORE.INTRA.DIHEDRAL.0>
47.3121

>  <SCORE.INTRA.POLAR>
1.47808

>  <SCORE.INTRA.POLAR.0>
-1.47808

>  <SCORE.INTRA.REPUL>
0

>  <SCORE.INTRA.REPUL.0>
0

>  <SCORE.INTRA.VDW>
3.41148

>  <SCORE.INTRA.VDW.0>
-2.78316

>  <SCORE.INTRA.norm>
0.485183

>  <SCORE.RESTR>
0.782009

>  <SCORE.RESTR.CAVITY>
0.782009

>  <SCORE.RESTR.norm>
0.0156402

>  <SCORE.SYSTEM>
0

>  <SCORE.SYSTEM.CONST>
0

>  <SCORE.SYSTEM.DIHEDRAL>
0

>  <SCORE.SYSTEM.norm>
0

>  <SCORE.heavy>
50

>  <SCORE.norm>
1.12244

$$$$
