FB1.pdb
  RxDock  10072015563D
librxdock.so/0.1.0
 59 58  0  0  0  0  0  0  0  0999 V2000
   -2.3124   -1.6145   -6.9365 C   0  0  0  0  0  0
   -1.5598   -1.1041   -8.1631 C   0  0  0  0  0  0
   -2.5209   -0.5936   -9.2492 C   0  0  0  0  0  0
   -1.8590   -0.4517  -10.6426 C   0  0  0  0  0  0
   -2.8396   -0.0670  -11.8048 C   0  0  0  0  0  0
   -3.8554   -1.2188  -11.9842 C   0  0  0  0  0  0
   -3.5839    1.3152  -11.5739 C   0  0  0  0  0  0
   -2.6632    2.6119  -11.3811 C   0  0  0  0  0  0
   -1.3959    2.9747  -12.2703 C   0  0  0  0  0  0
   -0.4648    4.2072  -11.6912 C   0  0  0  0  0  0
    0.7560    4.3597  -12.5970 C   0  0  0  0  0  0
   -1.1894    5.6189  -11.5278 C   0  0  0  0  0  0
   -0.4969    6.9234  -10.8663 C   0  0  0  0  0  0
    0.7113    7.6637  -11.5358 C   0  0  0  0  0  0
    1.8163    8.3200  -10.5886 C   0  0  0  0  0  0
    1.5046    8.9968   -9.1960 C   0  0  0  0  0  0
    1.3246   10.5359   -9.1170 C   0  0  0  0  0  0
    0.2918   11.1779  -10.1221 C   0  0  0  0  0  0
   -1.1875   10.8583   -9.8728 C   0  0  0  0  0  0
   -2.2603   11.7726  -10.5296 C   0  0  0  0  0  0
   -2.1915   12.1079  -12.0489 C   0  0  0  0  0  0
   -1.6016   11.0350  -12.9534 C   0  0  0  0  0  0
   -3.5058   12.5546  -12.5484 N   0  0  0  0  0  0
   -3.5090   11.0546  -10.3597 O   0  0  0  0  0  0
    0.4628   12.5988  -10.0835 O   0  0  0  0  0  0
   -1.5461    7.9037  -10.7973 O   0  0  0  0  0  0
   -3.5431    3.7599  -11.5233 O   0  0  0  0  0  0
   -4.5581    3.8738  -10.6277 C   0  0  0  0  0  0
   -4.6953    3.2232   -9.6092 O   0  0  0  0  0  0
   -5.4405    5.0156  -11.0510 C   0  0  0  0  0  0
   -5.7049    6.0115   -9.9106 C   0  0  0  0  0  0
   -6.4737    7.2533  -10.3799 C   0  0  0  0  0  0
   -5.6461    8.0763  -11.3397 C   0  0  0  0  0  0
   -6.0586    8.4708  -12.4250 O   0  0  0  0  0  0
   -4.4099    8.3385  -10.8903 O   0  0  0  0  0  0
   -6.5295    5.2471   -8.8657 C   0  0  0  0  0  0
   -7.7467    5.1547   -8.9141 O   0  0  0  0  0  0
   -5.8074    4.7278   -7.8633 O   0  0  0  0  0  0
   -4.6397    1.5316  -12.5929 O   0  0  0  0  0  0
   -5.8979    1.9219  -12.1657 C   0  0  0  0  0  0
   -6.4639    1.4819  -11.1735 O   0  0  0  0  0  0
   -6.5220    2.9836  -13.0809 C   0  0  0  0  0  0
   -8.0481    2.8222  -13.3631 C   0  0  0  0  0  0
   -9.0063    3.8796  -12.7851 C   0  0  0  0  0  0
   -8.9818    3.9358  -11.2849 C   0  0  0  0  0  0
   -8.4370    3.1243  -10.5493 O   0  0  0  0  0  0
   -9.6221    5.0111  -10.8011 O   0  0  0  0  0  0
   -8.4076    2.6462  -14.8437 C   0  0  0  0  0  0
   -7.7034    3.0522  -15.7469 O   0  0  0  0  0  0
   -9.5130    1.9116  -15.0881 O   0  0  0  0  0  0
   -3.4136   12.8399  -13.5224 H   0  0  0  0  0  0
   -3.7730   13.4058  -12.0489 H   0  0  0  0  0  0
   -3.3553   10.1871  -10.7898 H   0  0  0  0  0  0
    1.3509   12.8078  -10.4272 H   0  0  0  0  0  0
   -1.8630    8.0692  -11.7010 H   0  0  0  0  0  0
   -4.1858    7.9365  -10.0291 H   0  0  0  0  0  0
   -4.8659    5.0308   -7.8364 H   0  0  0  0  0  0
   -9.9783    5.4978  -11.5741 H   0  0  0  0  0  0
   -9.6597    1.6749  -16.0308 H   0  0  0  0  0  0
  1  2  1  0  0  0
  2  3  1  0  0  0
  3  4  1  0  0  0
  4  5  1  0  0  0
  5  6  1  0  0  0
  5  7  1  0  0  0
  7  8  1  0  0  0
  7 39  1  0  0  0
  8  9  1  0  0  0
  8 27  1  0  0  0
  9 10  1  0  0  0
 10 11  1  0  0  0
 10 12  1  0  0  0
 12 13  1  0  0  0
 13 14  1  0  0  0
 13 26  1  0  0  0
 14 15  1  0  0  0
 15 16  1  0  0  0
 16 17  1  0  0  0
 17 18  1  0  0  0
 18 19  1  0  0  0
 18 25  1  0  0  0
 19 20  1  0  0  0
 20 21  1  0  0  0
 20 24  1  0  0  0
 21 22  1  0  0  0
 21 23  1  0  0  0
 23 51  1  0  0  0
 23 52  1  0  0  0
 24 53  1  0  0  0
 25 54  1  0  0  0
 26 55  1  0  0  0
 27 28  1  0  0  0
 28 29  2  0  0  0
 28 30  1  0  0  0
 30 31  1  0  0  0
 31 32  1  0  0  0
 31 36  1  0  0  0
 32 33  1  0  0  0
 33 34  2  0  0  0
 33 35  1  0  0  0
 35 56  1  0  0  0
 36 37  2  0  0  0
 36 38  1  0  0  0
 38 57  1  0  0  0
 39 40  1  0  0  0
 40 41  2  0  0  0
 40 42  1  0  0  0
 42 43  1  0  0  0
 43 44  1  0  0  0
 43 48  1  0  0  0
 44 45  1  0  0  0
 45 46  2  0  0  0
 45 47  1  0  0  0
 47 58  1  0  0  0
 48 49  2  0  0  0
 48 50  1  0  0  0
 50 59  1  0  0  0
M  END
>  <AUTHOR>
    GENERATED BY OPEN BABEL 2.4.1

>  <CHROM.1>
-163.34322475,174.35038224,-64.02497873,58.19987844,44.82449430,131.61511786
-169.13429100,61.42448276,175.87607942,174.78312047,66.69067521,-145.95564407
-59.82037716,-35.38765137,-96.41876970,52.05857210,69.20889885,161.81003912
65.08326084,50.04397168,31.59791269,-57.21744314,175.35728149,11.18748976
-128.94568939,173.65253736,-65.94517193,-85.93802357,130.08072520,2.67681519
10.06478787,-40.39182361,140.03306145,112.20077753,-61.79911721,-24.84813009
-10.62966168,1.43003038,-170.33603200,-3.90257473,5.30418316,-11.14572667
-2.10283052,-0.26983108,-0.06041605

>  <COMPND>
    UNNAMED

>  <MASTER>
        0    0    0    0    0    0    0    0  109    0  109    0

>  <Name>
FB1.pdb

>  <RI>
0

>  <Rbt.Current_Directory>
/home/fc/tossine/FB1_39/p3/3_clust03

>  <Rbt.Executable>
rbdock/0.1.0

>  <Rbt.Library>
librxdock.so/0.1.0

>  <Rbt.Parameter_File>
/cluster/rxdock/data/scripts/dock.prm

>  <Rbt.Receptor>
rx_1.prm

>  <SCORE>
18.4239

>  <SCORE.INTER>
13.5013

>  <SCORE.INTER.CONST>
1

>  <SCORE.INTER.POLAR>
-0.937446

>  <SCORE.INTER.REPUL>
1.12382

>  <SCORE.INTER.ROT>
32

>  <SCORE.INTER.VDW>
-26.3304

>  <SCORE.INTER.norm>
0.270027

>  <SCORE.INTRA>
4.83034

>  <SCORE.INTRA.DIHEDRAL>
6.72869

>  <SCORE.INTRA.DIHEDRAL.0>
47.3121

>  <SCORE.INTRA.POLAR>
0.772159

>  <SCORE.INTRA.POLAR.0>
-1.47808

>  <SCORE.INTRA.REPUL>
0.0706766

>  <SCORE.INTRA.REPUL.0>
0

>  <SCORE.INTRA.VDW>
-1.51273

>  <SCORE.INTRA.VDW.0>
-2.78316

>  <SCORE.INTRA.norm>
0.0966067

>  <SCORE.RESTR>
0.0922429

>  <SCORE.RESTR.CAVITY>
0.0922429

>  <SCORE.RESTR.norm>
0.00184486

>  <SCORE.SYSTEM>
0

>  <SCORE.SYSTEM.CONST>
0

>  <SCORE.SYSTEM.DIHEDRAL>
0

>  <SCORE.SYSTEM.norm>
0

>  <SCORE.heavy>
50

>  <SCORE.norm>
0.368478

$$$$
