FB1.pdb
  RxDock  10072016553D
librxdock.so/0.1.0
 59 58  0  0  0  0  0  0  0  0999 V2000
   -0.1388    9.9596   -9.5526 C   0  0  0  0  0  0
    0.7286    8.7887   -9.0966 C   0  0  0  0  0  0
   -0.1181    7.6485   -8.5074 C   0  0  0  0  0  0
   -0.9999    6.9279   -9.5575 C   0  0  0  0  0  0
   -2.4412    7.5221   -9.7308 C   0  0  0  0  0  0
   -2.3107    9.0341  -10.0264 C   0  0  0  0  0  0
   -3.2947    6.7958  -10.8542 C   0  0  0  0  0  0
   -2.5775    6.5504  -12.2655 C   0  0  0  0  0  0
   -3.2466    5.8397  -13.5206 C   0  0  0  0  0  0
   -3.8375    4.3263  -13.2347 C   0  0  0  0  0  0
   -5.2148    4.2123  -13.8862 C   0  0  0  0  0  0
   -2.9190    3.1116  -13.7095 C   0  0  0  0  0  0
   -2.7487    1.7275  -12.8885 C   0  0  0  0  0  0
   -3.5734    0.4399  -13.2322 C   0  0  0  0  0  0
   -3.8445   -0.6189  -12.0684 C   0  0  0  0  0  0
   -2.7166   -1.4639  -11.3553 C   0  0  0  0  0  0
   -2.9958   -2.0916   -9.9641 C   0  0  0  0  0  0
   -3.2252   -1.0866   -8.7698 C   0  0  0  0  0  0
   -2.9520    0.3934   -9.0652 C   0  0  0  0  0  0
   -1.5510    0.9692   -8.7132 C   0  0  0  0  0  0
   -0.2945    0.5497   -9.5321 C   0  0  0  0  0  0
   -0.0411   -0.9454   -9.6659 C   0  0  0  0  0  0
   -0.2847    1.2065  -10.8531 N   0  0  0  0  0  0
   -1.6772    2.3986   -8.9251 O   0  0  0  0  0  0
   -4.5825   -1.2205   -8.3344 O   0  0  0  0  0  0
   -1.3734    1.3534  -13.0760 O   0  0  0  0  0  0
   -2.1910    7.8620  -12.7583 O   0  0  0  0  0  0
   -1.0984    7.9211  -13.5634 C   0  0  0  0  0  0
   -1.0114    7.4758  -14.6919 O   0  0  0  0  0  0
   -0.0353    8.7231  -12.8648 C   0  0  0  0  0  0
    1.0137    7.8375  -12.1735 C   0  0  0  0  0  0
    1.6098    6.7853  -13.1174 C   0  0  0  0  0  0
    2.7558    6.0510  -12.4610 C   0  0  0  0  0  0
    3.9050    6.0664  -12.8886 O   0  0  0  0  0  0
    2.3971    5.3774  -11.3581 O   0  0  0  0  0  0
    2.1144    8.7897  -11.6860 C   0  0  0  0  0  0
    3.2284    8.4095  -11.3590 O   0  0  0  0  0  0
    1.7377   10.0729  -11.6006 O   0  0  0  0  0  0
   -3.9268    5.5601  -10.3314 O   0  0  0  0  0  0
   -5.2669    5.6015   -9.9843 C   0  0  0  0  0  0
   -5.9499    6.6171   -9.9637 O   0  0  0  0  0  0
   -5.8191    4.2166   -9.6218 C   0  0  0  0  0  0
   -7.0985    3.7732  -10.3971 C   0  0  0  0  0  0
   -7.5423    2.3036  -10.2800 C   0  0  0  0  0  0
   -6.4014    1.3350  -10.4005 C   0  0  0  0  0  0
   -6.1431    0.4353   -9.6129 O   0  0  0  0  0  0
   -5.6688    1.5398  -11.5057 O   0  0  0  0  0  0
   -8.3353    4.6420  -10.1362 C   0  0  0  0  0  0
   -8.3767    5.4865   -9.2634 O   0  0  0  0  0  0
   -9.3494    4.4843  -11.0126 O   0  0  0  0  0  0
   -0.9428    0.7299  -11.4680 H   0  0  0  0  0  0
    0.6312    1.0607  -11.2836 H   0  0  0  0  0  0
   -1.7326    2.4997   -9.8987 H   0  0  0  0  0  0
   -5.1655   -0.9730   -9.0755 H   0  0  0  0  0  0
   -1.2585    1.0849  -14.0030 H   0  0  0  0  0  0
    1.4559    5.4557  -11.1098 H   0  0  0  0  0  0
    2.4512   10.6908  -11.3042 H   0  0  0  0  0  0
   -6.1405    2.2177  -12.0343 H   0  0  0  0  0  0
   -9.1766    3.8520  -11.7450 H   0  0  0  0  0  0
  1  2  1  0  0  0
  2  3  1  0  0  0
  3  4  1  0  0  0
  4  5  1  0  0  0
  5  6  1  0  0  0
  5  7  1  0  0  0
  7  8  1  0  0  0
  7 39  1  0  0  0
  8  9  1  0  0  0
  8 27  1  0  0  0
  9 10  1  0  0  0
 10 11  1  0  0  0
 10 12  1  0  0  0
 12 13  1  0  0  0
 13 14  1  0  0  0
 13 26  1  0  0  0
 14 15  1  0  0  0
 15 16  1  0  0  0
 16 17  1  0  0  0
 17 18  1  0  0  0
 18 19  1  0  0  0
 18 25  1  0  0  0
 19 20  1  0  0  0
 20 21  1  0  0  0
 20 24  1  0  0  0
 21 22  1  0  0  0
 21 23  1  0  0  0
 23 51  1  0  0  0
 23 52  1  0  0  0
 24 53  1  0  0  0
 25 54  1  0  0  0
 26 55  1  0  0  0
 27 28  1  0  0  0
 28 29  2  0  0  0
 28 30  1  0  0  0
 30 31  1  0  0  0
 31 32  1  0  0  0
 31 36  1  0  0  0
 32 33  1  0  0  0
 33 34  2  0  0  0
 33 35  1  0  0  0
 35 56  1  0  0  0
 36 37  2  0  0  0
 36 38  1  0  0  0
 38 57  1  0  0  0
 39 40  1  0  0  0
 40 41  2  0  0  0
 40 42  1  0  0  0
 42 43  1  0  0  0
 43 44  1  0  0  0
 43 48  1  0  0  0
 44 45  1  0  0  0
 45 46  2  0  0  0
 45 47  1  0  0  0
 47 58  1  0  0  0
 48 49  2  0  0  0
 48 50  1  0  0  0
 50 59  1  0  0  0
M  END
>  <AUTHOR>
    GENERATED BY OPEN BABEL 2.4.1

>  <CHROM.1>
68.17683336,-91.00449456,54.01391492,-47.44535143,179.79234637,101.07458100
-55.78088844,151.05282072,135.70526324,142.26090198,97.17116367,-153.46766843
-69.97442547,-65.47196114,159.82004936,-65.46425712,-8.40546448,-94.81108115
-62.08465606,70.28085519,-53.40825328,-71.23192438,-77.26854793,68.33326153
98.91762460,52.05741044,172.81188857,-163.39327570,-118.48973116,-0.99303279
-178.81332034,-6.81054007,-126.47387237,168.50224130,-44.11112106,-9.85523899
128.18251270,-7.23507552,-2.06065125,-2.46673906,4.38357598,-11.06965689
0.88372243,0.11145701,-0.08731009

>  <COMPND>
    UNNAMED

>  <MASTER>
        0    0    0    0    0    0    0    0  109    0  109    0

>  <Name>
FB1.pdb

>  <RI>
0

>  <Rbt.Current_Directory>
/home/fc/tossine/FB1_39/p3/3_clust03

>  <Rbt.Executable>
rbdock/0.1.0

>  <Rbt.Library>
librxdock.so/0.1.0

>  <Rbt.Parameter_File>
/cluster/rxdock/data/scripts/dock.prm

>  <Rbt.Receptor>
rx_2.prm

>  <SCORE>
70.671

>  <SCORE.INTER>
35.136

>  <SCORE.INTER.CONST>
1

>  <SCORE.INTER.POLAR>
-0.931003

>  <SCORE.INTER.REPUL>
0.0372381

>  <SCORE.INTER.ROT>
32

>  <SCORE.INTER.VDW>
0.715221

>  <SCORE.INTER.norm>
0.70272

>  <SCORE.INTRA>
32.6874

>  <SCORE.INTRA.DIHEDRAL>
29.93

>  <SCORE.INTRA.DIHEDRAL.0>
47.3121

>  <SCORE.INTRA.POLAR>
0.0560553

>  <SCORE.INTRA.POLAR.0>
-1.47808

>  <SCORE.INTRA.REPUL>
0.0139507

>  <SCORE.INTRA.REPUL.0>
0

>  <SCORE.INTRA.VDW>
17.4621

>  <SCORE.INTRA.VDW.0>
-2.78316

>  <SCORE.INTRA.norm>
0.653748

>  <SCORE.RESTR>
2.84754

>  <SCORE.RESTR.CAVITY>
2.84754

>  <SCORE.RESTR.norm>
0.0569508

>  <SCORE.SYSTEM>
0

>  <SCORE.SYSTEM.CONST>
0

>  <SCORE.SYSTEM.DIHEDRAL>
0

>  <SCORE.SYSTEM.norm>
0

>  <SCORE.heavy>
50

>  <SCORE.norm>
1.41342

$$$$
