FB1.pdb
  RxDock  10072017053D
librxdock.so/0.1.0
 59 58  0  0  0  0  0  0  0  0999 V2000
    0.0297    9.1227  -11.8881 C   0  0  0  0  0  0
    0.1753    8.0901  -13.0033 C   0  0  0  0  0  0
    0.4705    6.6878  -12.4460 C   0  0  0  0  0  0
    0.4684    5.5799  -13.5286 C   0  0  0  0  0  0
   -0.2624    4.2543  -13.1172 C   0  0  0  0  0  0
    0.4578    3.6660  -11.8820 C   0  0  0  0  0  0
   -1.8115    4.4474  -12.8324 C   0  0  0  0  0  0
   -2.7620    3.1870  -13.1048 C   0  0  0  0  0  0
   -2.4910    1.7079  -12.5881 C   0  0  0  0  0  0
   -3.1934    0.5142  -13.4843 C   0  0  0  0  0  0
   -2.1114   -0.4816  -13.8987 C   0  0  0  0  0  0
   -4.4015   -0.2654  -12.7933 C   0  0  0  0  0  0
   -4.2299   -1.2858  -11.5491 C   0  0  0  0  0  0
   -4.9965   -1.0964  -10.1954 C   0  0  0  0  0  0
   -4.7090    0.2207   -9.3400 C   0  0  0  0  0  0
   -3.3337    0.5372   -8.6309 C   0  0  0  0  0  0
   -2.7550   -0.4689   -7.6012 C   0  0  0  0  0  0
   -2.4575   -1.9258   -8.1287 C   0  0  0  0  0  0
   -1.2951   -2.0653   -9.1195 C   0  0  0  0  0  0
   -1.3911   -1.3164  -10.4790 C   0  0  0  0  0  0
   -0.7565    0.0954  -10.6513 C   0  0  0  0  0  0
   -0.5023    0.8843   -9.3745 C   0  0  0  0  0  0
    0.4621    0.0262  -11.4799 N   0  0  0  0  0  0
   -0.6805   -2.1644  -11.4169 O   0  0  0  0  0  0
   -2.1921   -2.7601   -6.9959 O   0  0  0  0  0  0
   -4.6668   -2.5594  -12.0528 O   0  0  0  0  0  0
   -4.0606    3.5299  -12.5494 O   0  0  0  0  0  0
   -4.2643    3.2466  -11.2366 C   0  0  0  0  0  0
   -3.4208    3.2513  -10.3603 O   0  0  0  0  0  0
   -5.7356    3.0223  -11.0208 C   0  0  0  0  0  0
   -6.5652    4.2981  -11.2367 C   0  0  0  0  0  0
   -6.5430    4.7749  -12.6946 C   0  0  0  0  0  0
   -7.4095    3.8978  -13.5682 C   0  0  0  0  0  0
   -7.1102    2.7525  -13.8884 O   0  0  0  0  0  0
   -8.5455    4.4920  -13.9624 O   0  0  0  0  0  0
   -7.9998    3.9437  -10.8217 C   0  0  0  0  0  0
   -8.6375    4.5920  -10.0059 O   0  0  0  0  0  0
   -8.4818    2.8312  -11.3926 O   0  0  0  0  0  0
   -2.0399    5.0339  -11.4894 O   0  0  0  0  0  0
   -2.6018    6.2972  -11.4088 C   0  0  0  0  0  0
   -2.4720    7.0577  -10.4585 O   0  0  0  0  0  0
   -3.4193    6.6532  -12.6575 C   0  0  0  0  0  0
   -4.2029    8.0009  -12.5925 C   0  0  0  0  0  0
   -5.7239    7.9429  -12.3607 C   0  0  0  0  0  0
   -6.0888    7.5953  -10.9463 C   0  0  0  0  0  0
   -7.0079    8.0862  -10.3053 O   0  0  0  0  0  0
   -5.2953    6.6441  -10.4306 O   0  0  0  0  0  0
   -3.6324    9.0231  -11.6015 C   0  0  0  0  0  0
   -2.9548    9.9708  -11.9472 O   0  0  0  0  0  0
   -4.0206    8.8654  -10.3187 O   0  0  0  0  0  0
    0.2080   -0.2595  -12.4245 H   0  0  0  0  0  0
    1.0548   -0.7285  -11.1269 H   0  0  0  0  0  0
    0.1970   -2.3080  -11.0037 H   0  0  0  0  0  0
   -3.0242   -2.8744   -6.5007 H   0  0  0  0  0  0
   -4.0377   -2.8441  -12.7367 H   0  0  0  0  0  0
   -8.6762    5.4015  -13.6321 H   0  0  0  0  0  0
   -9.3820    2.5663  -11.0790 H   0  0  0  0  0  0
   -4.4454    7.0783  -10.2056 H   0  0  0  0  0  0
   -3.7224    9.5690   -9.7005 H   0  0  0  0  0  0
  1  2  1  0  0  0
  2  3  1  0  0  0
  3  4  1  0  0  0
  4  5  1  0  0  0
  5  6  1  0  0  0
  5  7  1  0  0  0
  7  8  1  0  0  0
  7 39  1  0  0  0
  8  9  1  0  0  0
  8 27  1  0  0  0
  9 10  1  0  0  0
 10 11  1  0  0  0
 10 12  1  0  0  0
 12 13  1  0  0  0
 13 14  1  0  0  0
 13 26  1  0  0  0
 14 15  1  0  0  0
 15 16  1  0  0  0
 16 17  1  0  0  0
 17 18  1  0  0  0
 18 19  1  0  0  0
 18 25  1  0  0  0
 19 20  1  0  0  0
 20 21  1  0  0  0
 20 24  1  0  0  0
 21 22  1  0  0  0
 21 23  1  0  0  0
 23 51  1  0  0  0
 23 52  1  0  0  0
 24 53  1  0  0  0
 25 54  1  0  0  0
 26 55  1  0  0  0
 27 28  1  0  0  0
 28 29  2  0  0  0
 28 30  1  0  0  0
 30 31  1  0  0  0
 31 32  1  0  0  0
 31 36  1  0  0  0
 32 33  1  0  0  0
 33 34  2  0  0  0
 33 35  1  0  0  0
 35 56  1  0  0  0
 36 37  2  0  0  0
 36 38  1  0  0  0
 38 57  1  0  0  0
 39 40  1  0  0  0
 40 41  2  0  0  0
 40 42  1  0  0  0
 42 43  1  0  0  0
 43 44  1  0  0  0
 43 48  1  0  0  0
 44 45  1  0  0  0
 45 46  2  0  0  0
 45 47  1  0  0  0
 47 58  1  0  0  0
 48 49  2  0  0  0
 48 50  1  0  0  0
 50 59  1  0  0  0
M  END
>  <AUTHOR>
    GENERATED BY OPEN BABEL 2.4.1

>  <CHROM.1>
173.51222119,-137.00297337,-60.84860940,151.14348290,48.62416180,114.92877871
-154.82518527,-87.43844425,125.95696185,-70.03411459,123.41782322,-62.47139219
66.44372108,-67.30469096,-57.21697103,59.81680849,69.16803598,-61.71202490
69.34639115,94.30000205,-20.98633286,-53.42015358,65.22330564,31.58577959
-66.47981112,66.18771280,74.54295916,126.42856357,-72.15053752,-0.70591520
175.95342264,-156.15866059,174.21989999,-103.90478343,74.13025755,101.77816410
140.63909879,76.49259679,-174.53261143,-3.55787829,3.35291240,-11.39531562
-1.75299456,-0.00341883,2.96410355

>  <COMPND>
    UNNAMED

>  <MASTER>
        0    0    0    0    0    0    0    0  109    0  109    0

>  <Name>
FB1.pdb

>  <RI>
0

>  <Rbt.Current_Directory>
/home/fc/tossine/FB1_39/p3/3_clust03

>  <Rbt.Executable>
rbdock/0.1.0

>  <Rbt.Library>
librxdock.so/0.1.0

>  <Rbt.Parameter_File>
/cluster/rxdock/data/scripts/dock.prm

>  <Rbt.Receptor>
rx_2.prm

>  <SCORE>
25.2528

>  <SCORE.INTER>
-3.0896

>  <SCORE.INTER.CONST>
1

>  <SCORE.INTER.POLAR>
-4.32896

>  <SCORE.INTER.REPUL>
0.115045

>  <SCORE.INTER.ROT>
32

>  <SCORE.INTER.VDW>
-26.3464

>  <SCORE.INTER.norm>
-0.061792

>  <SCORE.INTRA>
27.8471

>  <SCORE.INTRA.DIHEDRAL>
40.9747

>  <SCORE.INTRA.DIHEDRAL.0>
47.3121

>  <SCORE.INTRA.POLAR>
0.917704

>  <SCORE.INTRA.POLAR.0>
-1.47808

>  <SCORE.INTRA.REPUL>
0

>  <SCORE.INTRA.REPUL.0>
0

>  <SCORE.INTRA.VDW>
4.23955

>  <SCORE.INTRA.VDW.0>
-2.78316

>  <SCORE.INTRA.norm>
0.556942

>  <SCORE.RESTR>
0.495329

>  <SCORE.RESTR.CAVITY>
0.495329

>  <SCORE.RESTR.norm>
0.00990659

>  <SCORE.SYSTEM>
0

>  <SCORE.SYSTEM.CONST>
0

>  <SCORE.SYSTEM.DIHEDRAL>
0

>  <SCORE.SYSTEM.norm>
0

>  <SCORE.heavy>
50

>  <SCORE.norm>
0.505056

$$$$
