FB1.pdb
  RxDock  10072015083D
librxdock.so/0.1.0
 59 58  0  0  0  0  0  0  0  0999 V2000
   -6.6605   -5.4473  -14.4038 C   0  0  0  0  0  0
   -5.7727   -4.8868  -13.2952 C   0  0  0  0  0  0
   -6.3938   -3.6401  -12.6438 C   0  0  0  0  0  0
   -5.3468   -2.6774  -12.0302 C   0  0  0  0  0  0
   -5.9478   -1.4571  -11.2491 C   0  0  0  0  0  0
   -6.2868   -1.9191   -9.8130 C   0  0  0  0  0  0
   -4.9954   -0.1882  -11.2270 C   0  0  0  0  0  0
   -5.4361    1.0338  -10.2896 C   0  0  0  0  0  0
   -4.8904    2.5224  -10.4098 C   0  0  0  0  0  0
   -3.4656    2.6813  -11.2260 C   0  0  0  0  0  0
   -3.5848    3.8654  -12.1840 C   0  0  0  0  0  0
   -2.1567    2.8482  -10.3295 C   0  0  0  0  0  0
   -0.6534    2.5631  -10.8563 C   0  0  0  0  0  0
    0.4636    3.6623  -10.8443 C   0  0  0  0  0  0
    0.4313    4.7873  -11.9768 C   0  0  0  0  0  0
   -0.8880    5.4681  -12.5157 C   0  0  0  0  0  0
   -1.6607    6.4623  -11.6090 C   0  0  0  0  0  0
   -1.7656    7.9504  -12.1227 C   0  0  0  0  0  0
   -0.5383    8.8392  -11.8854 C   0  0  0  0  0  0
   -0.0014    8.9823  -10.4330 C   0  0  0  0  0  0
    1.5233    9.1544  -10.1663 C   0  0  0  0  0  0
    1.9519    9.2280   -8.7074 C   0  0  0  0  0  0
    2.3024    8.1346  -10.8940 N   0  0  0  0  0  0
   -0.6096   10.2012   -9.9347 O   0  0  0  0  0  0
   -2.0362    7.9144  -13.5281 O   0  0  0  0  0  0
   -0.1570    1.5145  -10.0075 O   0  0  0  0  0  0
   -6.8755    1.1648  -10.4428 O   0  0  0  0  0  0
   -7.3740    1.0588  -11.7020 C   0  0  0  0  0  0
   -8.2931    0.3440  -12.0541 O   0  0  0  0  0  0
   -6.6653    2.0530  -12.5798 C   0  0  0  0  0  0
   -7.4033    3.3987  -12.6629 C   0  0  0  0  0  0
   -6.5263    4.5163  -13.2419 C   0  0  0  0  0  0
   -7.1648    5.8707  -13.0389 C   0  0  0  0  0  0
   -8.3751    6.0423  -12.9412 O   0  0  0  0  0  0
   -6.2783    6.8750  -12.9732 O   0  0  0  0  0  0
   -8.6166    3.1589  -13.5720 C   0  0  0  0  0  0
   -8.6026    3.3759  -14.7741 O   0  0  0  0  0  0
   -9.7143    2.7366  -12.9295 O   0  0  0  0  0  0
   -3.5840   -0.5820  -10.9972 O   0  0  0  0  0  0
   -3.2197   -1.0225   -9.7357 C   0  0  0  0  0  0
   -3.8415   -0.7845   -8.7086 O   0  0  0  0  0  0
   -1.9319   -1.8564   -9.7579 C   0  0  0  0  0  0
   -2.1023   -3.3554  -10.1560 C   0  0  0  0  0  0
   -2.4006   -3.6827  -11.6306 C   0  0  0  0  0  0
   -2.9277   -5.0748  -11.8274 C   0  0  0  0  0  0
   -2.4407   -5.9253  -12.5595 O   0  0  0  0  0  0
   -4.0166   -5.3211  -11.0831 O   0  0  0  0  0  0
   -0.9515   -4.2675   -9.7134 C   0  0  0  0  0  0
   -1.1223   -5.2720   -9.0513 O   0  0  0  0  0  0
    0.2651   -3.9421  -10.1985 O   0  0  0  0  0  0
    2.0576    8.1697  -11.8826 H   0  0  0  0  0  0
    2.0017    7.2089  -10.5808 H   0  0  0  0  0  0
   -0.5780   10.1115   -8.9588 H   0  0  0  0  0  0
   -2.3226    8.8041  -13.8056 H   0  0  0  0  0  0
   -0.0224    1.8850   -9.1192 H   0  0  0  0  0  0
   -5.3819    6.6612  -13.2963 H   0  0  0  0  0  0
  -10.5104    2.6267  -13.5064 H   0  0  0  0  0  0
   -4.0038   -4.6771  -10.3440 H   0  0  0  0  0  0
    0.3047   -3.0981  -10.7008 H   0  0  0  0  0  0
  1  2  1  0  0  0
  2  3  1  0  0  0
  3  4  1  0  0  0
  4  5  1  0  0  0
  5  6  1  0  0  0
  5  7  1  0  0  0
  7  8  1  0  0  0
  7 39  1  0  0  0
  8  9  1  0  0  0
  8 27  1  0  0  0
  9 10  1  0  0  0
 10 11  1  0  0  0
 10 12  1  0  0  0
 12 13  1  0  0  0
 13 14  1  0  0  0
 13 26  1  0  0  0
 14 15  1  0  0  0
 15 16  1  0  0  0
 16 17  1  0  0  0
 17 18  1  0  0  0
 18 19  1  0  0  0
 18 25  1  0  0  0
 19 20  1  0  0  0
 20 21  1  0  0  0
 20 24  1  0  0  0
 21 22  1  0  0  0
 21 23  1  0  0  0
 23 51  1  0  0  0
 23 52  1  0  0  0
 24 53  1  0  0  0
 25 54  1  0  0  0
 26 55  1  0  0  0
 27 28  1  0  0  0
 28 29  2  0  0  0
 28 30  1  0  0  0
 30 31  1  0  0  0
 31 32  1  0  0  0
 31 36  1  0  0  0
 32 33  1  0  0  0
 33 34  2  0  0  0
 33 35  1  0  0  0
 35 56  1  0  0  0
 36 37  2  0  0  0
 36 38  1  0  0  0
 38 57  1  0  0  0
 39 40  1  0  0  0
 40 41  2  0  0  0
 40 42  1  0  0  0
 42 43  1  0  0  0
 43 44  1  0  0  0
 43 48  1  0  0  0
 44 45  1  0  0  0
 45 46  2  0  0  0
 45 47  1  0  0  0
 47 58  1  0  0  0
 48 49  2  0  0  0
 48 50  1  0  0  0
 50 59  1  0  0  0
M  END
>  <AUTHOR>
    GENERATED BY OPEN BABEL 2.4.1

>  <CHROM.1>
-153.30954706,-174.97457450,83.43670133,-171.99129675,-161.88411296,-71.84545477
-19.61604426,-42.77184654,135.41128286,160.20393169,121.18084731,-77.06877149
-69.91620931,39.37895451,71.33676947,116.95886827,-80.32185979,-55.22123898
165.92397045,146.58382425,-177.54346003,158.07258509,54.36706988,129.52850072
-92.38491462,165.11825782,-167.83970876,-93.78441608,-27.06738972,15.71824347
176.96474287,-20.90580572,-81.66359646,72.64689871,-163.45022804,125.60928650
-123.80892114,-21.74220045,6.63050024,-3.64993628,1.76098301,-11.46033817
1.84740883,0.31811265,3.06215545

>  <COMPND>
    UNNAMED

>  <MASTER>
        0    0    0    0    0    0    0    0  109    0  109    0

>  <Name>
FB1.pdb

>  <RI>
0

>  <Rbt.Current_Directory>
/home/fc/tossine/FB1_39/p3/3_clust03

>  <Rbt.Executable>
rbdock/0.1.0

>  <Rbt.Library>
librxdock.so/0.1.0

>  <Rbt.Parameter_File>
/cluster/rxdock/data/scripts/dock.prm

>  <Rbt.Receptor>
rx_0.prm

>  <SCORE>
32.6761

>  <SCORE.INTER>
6.55064

>  <SCORE.INTER.CONST>
1

>  <SCORE.INTER.POLAR>
-3.58506

>  <SCORE.INTER.REPUL>
0.225535

>  <SCORE.INTER.ROT>
32

>  <SCORE.INTER.VDW>
-19.7878

>  <SCORE.INTER.norm>
0.131013

>  <SCORE.INTRA>
24.1226

>  <SCORE.INTRA.DIHEDRAL>
33.3463

>  <SCORE.INTRA.DIHEDRAL.0>
47.3121

>  <SCORE.INTRA.POLAR>
1.47808

>  <SCORE.INTRA.POLAR.0>
-1.47808

>  <SCORE.INTRA.REPUL>
0

>  <SCORE.INTRA.REPUL.0>
0

>  <SCORE.INTRA.VDW>
2.42402

>  <SCORE.INTRA.VDW.0>
-2.78316

>  <SCORE.INTRA.norm>
0.482453

>  <SCORE.RESTR>
2.00277

>  <SCORE.RESTR.CAVITY>
2.00277

>  <SCORE.RESTR.norm>
0.0400553

>  <SCORE.SYSTEM>
0

>  <SCORE.SYSTEM.CONST>
0

>  <SCORE.SYSTEM.DIHEDRAL>
0

>  <SCORE.SYSTEM.norm>
0

>  <SCORE.heavy>
50

>  <SCORE.norm>
0.653521

$$$$
