FB1.pdb
  RxDock  10072017503D
librxdock.so/0.1.0
 59 58  0  0  0  0  0  0  0  0999 V2000
  -10.3123    1.0098  -13.5732 C   0  0  0  0  0  0
   -9.6989    0.9896  -12.1751 C   0  0  0  0  0  0
   -8.4321    1.8576  -12.0965 C   0  0  0  0  0  0
   -7.6620    1.7067  -10.7609 C   0  0  0  0  0  0
   -6.3087    2.4962  -10.6847 C   0  0  0  0  0  0
   -5.6369    2.1783   -9.3289 C   0  0  0  0  0  0
   -5.3260    2.1863  -11.8914 C   0  0  0  0  0  0
   -3.9808    3.0522  -11.9725 C   0  0  0  0  0  0
   -2.8481    2.8820  -13.0753 C   0  0  0  0  0  0
   -2.6507    4.1750  -14.0807 C   0  0  0  0  0  0
   -3.8933    4.2992  -14.9608 C   0  0  0  0  0  0
   -2.3524    5.5746  -13.3758 C   0  0  0  0  0  0
   -0.9593    5.9409  -12.6385 C   0  0  0  0  0  0
    0.3743    6.1713  -13.4289 C   0  0  0  0  0  0
    1.7565    5.8958  -12.6789 C   0  0  0  0  0  0
    2.0952    6.4074  -11.2235 C   0  0  0  0  0  0
    1.3023    7.6012  -10.6288 C   0  0  0  0  0  0
    1.5996    9.0228  -11.2452 C   0  0  0  0  0  0
    2.7571    9.0996  -12.2486 C   0  0  0  0  0  0
    4.1255    8.4810  -11.8445 C   0  0  0  0  0  0
    5.1290    7.9998  -12.9340 C   0  0  0  0  0  0
    4.6364    6.9087  -13.8743 C   0  0  0  0  0  0
    5.6707    9.1439  -13.6916 N   0  0  0  0  0  0
    4.8165    9.5447  -11.1411 O   0  0  0  0  0  0
    0.4072    9.4827  -11.8904 O   0  0  0  0  0  0
   -1.2144    7.1837  -11.9627 O   0  0  0  0  0  0
   -4.3971    4.4393  -12.0955 O   0  0  0  0  0  0
   -4.8626    5.0455  -10.9725 C   0  0  0  0  0  0
   -4.4523    4.8751   -9.8402 O   0  0  0  0  0  0
   -5.9105    6.0474  -11.3719 C   0  0  0  0  0  0
   -5.9861    7.2399  -10.4050 C   0  0  0  0  0  0
   -5.5144    8.5502  -11.0483 C   0  0  0  0  0  0
   -4.0557    8.4732  -11.4354 C   0  0  0  0  0  0
   -3.6208    8.8484  -12.5188 O   0  0  0  0  0  0
   -3.2751    7.9542  -10.4762 O   0  0  0  0  0  0
   -7.4604    7.3572   -9.9945 C   0  0  0  0  0  0
   -7.8552    7.1455   -8.8579 O   0  0  0  0  0  0
   -8.2917    7.6644  -10.9998 O   0  0  0  0  0  0
   -5.0567    0.7320  -12.0027 O   0  0  0  0  0  0
   -4.3565    0.1114  -10.9815 C   0  0  0  0  0  0
   -4.8690   -0.5467  -10.0857 O   0  0  0  0  0  0
   -2.8427    0.3370  -11.0906 C   0  0  0  0  0  0
   -1.9639   -0.9522  -11.0882 C   0  0  0  0  0  0
   -1.6431   -1.6115  -12.4420 C   0  0  0  0  0  0
   -1.2470   -3.0540  -12.3128 C   0  0  0  0  0  0
   -2.0010   -4.0124  -12.4101 O   0  0  0  0  0  0
    0.0672   -3.2073  -12.0899 O   0  0  0  0  0  0
   -0.6407   -0.8205  -10.3238 C   0  0  0  0  0  0
   -0.4851   -1.2440   -9.1954 O   0  0  0  0  0  0
    0.3845   -0.2948  -11.0265 O   0  0  0  0  0  0
    6.0911    8.8037  -14.5553 H   0  0  0  0  0  0
    6.4465    9.5482  -13.1623 H   0  0  0  0  0  0
    4.3063    9.6645  -10.3125 H   0  0  0  0  0  0
    0.5266   10.4237  -12.1154 H   0  0  0  0  0  0
   -1.4558    7.8459  -12.6319 H   0  0  0  0  0  0
   -2.3587    7.7540  -10.7478 H   0  0  0  0  0  0
   -7.8551    7.7395  -11.8844 H   0  0  0  0  0  0
    0.4120   -2.3286  -11.8250 H   0  0  0  0  0  0
    0.1995   -0.1275  -11.9772 H   0  0  0  0  0  0
  1  2  1  0  0  0
  2  3  1  0  0  0
  3  4  1  0  0  0
  4  5  1  0  0  0
  5  6  1  0  0  0
  5  7  1  0  0  0
  7  8  1  0  0  0
  7 39  1  0  0  0
  8  9  1  0  0  0
  8 27  1  0  0  0
  9 10  1  0  0  0
 10 11  1  0  0  0
 10 12  1  0  0  0
 12 13  1  0  0  0
 13 14  1  0  0  0
 13 26  1  0  0  0
 14 15  1  0  0  0
 15 16  1  0  0  0
 16 17  1  0  0  0
 17 18  1  0  0  0
 18 19  1  0  0  0
 18 25  1  0  0  0
 19 20  1  0  0  0
 20 21  1  0  0  0
 20 24  1  0  0  0
 21 22  1  0  0  0
 21 23  1  0  0  0
 23 51  1  0  0  0
 23 52  1  0  0  0
 24 53  1  0  0  0
 25 54  1  0  0  0
 26 55  1  0  0  0
 27 28  1  0  0  0
 28 29  2  0  0  0
 28 30  1  0  0  0
 30 31  1  0  0  0
 31 32  1  0  0  0
 31 36  1  0  0  0
 32 33  1  0  0  0
 33 34  2  0  0  0
 33 35  1  0  0  0
 35 56  1  0  0  0
 36 37  2  0  0  0
 36 38  1  0  0  0
 38 57  1  0  0  0
 39 40  1  0  0  0
 40 41  2  0  0  0
 40 42  1  0  0  0
 42 43  1  0  0  0
 43 44  1  0  0  0
 43 48  1  0  0  0
 44 45  1  0  0  0
 45 46  2  0  0  0
 45 47  1  0  0  0
 47 58  1  0  0  0
 48 49  2  0  0  0
 48 50  1  0  0  0
 50 59  1  0  0  0
M  END
>  <AUTHOR>
    GENERATED BY OPEN BABEL 2.4.1

>  <CHROM.1>
-171.64347103,175.72586614,-176.97254409,174.25921053,178.51008147,-66.13073109
114.82698141,75.42228911,-67.89873774,70.79685252,70.31588365,-153.66663141
-60.47919387,-46.43866289,-20.81286685,-71.41231160,-6.99982428,-50.30955359
168.86065373,155.04203632,-59.94663695,68.00538004,-163.20085692,36.46646087
-150.40371352,111.95739142,-63.33110936,113.14729309,134.16873032,170.24591124
2.40201790,99.99385011,-126.10990298,90.07928550,-159.07053013,100.22829821
93.76959957,15.03954768,-5.35256273,-2.50222692,4.23350918,-11.68687583,2.40040287
-0.10222111,-3.13546901

>  <COMPND>
    UNNAMED

>  <MASTER>
        0    0    0    0    0    0    0    0  109    0  109    0

>  <Name>
FB1.pdb

>  <RI>
0

>  <Rbt.Current_Directory>
/home/fc/tossine/FB1_39/p3/3_clust03

>  <Rbt.Executable>
rbdock/0.1.0

>  <Rbt.Library>
librxdock.so/0.1.0

>  <Rbt.Parameter_File>
/cluster/rxdock/data/scripts/dock.prm

>  <Rbt.Receptor>
rx_3.prm

>  <SCORE>
31.9894

>  <SCORE.INTER>
8.22355

>  <SCORE.INTER.CONST>
1

>  <SCORE.INTER.POLAR>
-1.91161

>  <SCORE.INTER.REPUL>
0.157718

>  <SCORE.INTER.ROT>
32

>  <SCORE.INTER.VDW>
-23.4656

>  <SCORE.INTER.norm>
0.164471

>  <SCORE.INTRA>
21.0741

>  <SCORE.INTRA.DIHEDRAL>
32.2941

>  <SCORE.INTRA.DIHEDRAL.0>
47.3121

>  <SCORE.INTRA.POLAR>
0.478077

>  <SCORE.INTRA.POLAR.0>
-1.47808

>  <SCORE.INTRA.REPUL>
0

>  <SCORE.INTRA.REPUL.0>
0

>  <SCORE.INTRA.VDW>
3.30157

>  <SCORE.INTRA.VDW.0>
-2.78316

>  <SCORE.INTRA.norm>
0.421481

>  <SCORE.RESTR>
2.69177

>  <SCORE.RESTR.CAVITY>
2.69177

>  <SCORE.RESTR.norm>
0.0538355

>  <SCORE.SYSTEM>
0

>  <SCORE.SYSTEM.CONST>
0

>  <SCORE.SYSTEM.DIHEDRAL>
0

>  <SCORE.SYSTEM.norm>
0

>  <SCORE.heavy>
50

>  <SCORE.norm>
0.639788

$$$$
