FB1.pdb
  RxDock  10072018243D
librxdock.so/0.1.0
 59 58  0  0  0  0  0  0  0  0999 V2000
    0.1127   11.6239  -11.1557 C   0  0  0  0  0  0
   -0.1938   10.4602  -10.2161 C   0  0  0  0  0  0
    0.3223    9.1246  -10.7766 C   0  0  0  0  0  0
    0.4757    8.0212   -9.7002 C   0  0  0  0  0  0
   -0.7798    7.0994   -9.5141 C   0  0  0  0  0  0
   -1.8841    7.9197   -8.8084 C   0  0  0  0  0  0
   -1.3152    6.4770  -10.8720 C   0  0  0  0  0  0
   -0.7022    5.0647  -11.3145 C   0  0  0  0  0  0
   -0.9130    4.3801  -12.7340 C   0  0  0  0  0  0
   -2.3654    3.6250  -12.9377 C   0  0  0  0  0  0
   -3.1852    4.4166  -13.9553 C   0  0  0  0  0  0
   -2.3057    2.0921  -13.3751 C   0  0  0  0  0  0
   -1.4591    0.9570  -12.5918 C   0  0  0  0  0  0
   -0.3031    1.3099  -11.5942 C   0  0  0  0  0  0
   -0.6798    2.0455  -10.2281 C   0  0  0  0  0  0
   -0.8957    1.3046   -8.8501 C   0  0  0  0  0  0
   -1.2860   -0.1971   -8.8423 C   0  0  0  0  0  0
   -2.8279   -0.5257   -8.9039 C   0  0  0  0  0  0
   -3.4303   -1.1933   -7.6614 C   0  0  0  0  0  0
   -2.8575   -2.5673   -7.2117 C   0  0  0  0  0  0
   -3.0351   -3.0566   -5.7438 C   0  0  0  0  0  0
   -1.9811   -2.5994   -4.7451 C   0  0  0  0  0  0
   -4.3932   -2.7580   -5.2510 N   0  0  0  0  0  0
   -3.5637   -3.5425   -8.0205 O   0  0  0  0  0  0
   -3.5307    0.6973   -9.1490 O   0  0  0  0  0  0
   -2.4311    0.2487  -11.8044 O   0  0  0  0  0  0
    0.7401    5.1896  -11.1858 O   0  0  0  0  0  0
    1.3222    6.2618  -11.7830 C   0  0  0  0  0  0
    0.7914    7.0238  -12.5686 O   0  0  0  0  0  0
    2.7133    6.4159  -11.2332 C   0  0  0  0  0  0
    3.6265    7.2357  -12.1587 C   0  0  0  0  0  0
    2.9855    7.5108  -13.5250 C   0  0  0  0  0  0
    3.1361    6.3230  -14.4468 C   0  0  0  0  0  0
    4.2006    5.9912  -14.9572 O   0  0  0  0  0  0
    1.9893    5.6595  -14.6551 O   0  0  0  0  0  0
    3.8908    8.5587  -11.4266 C   0  0  0  0  0  0
    3.1847    9.5467  -11.5587 O   0  0  0  0  0  0
    4.9931    8.5583  -10.6643 O   0  0  0  0  0  0
   -2.7979    6.4747  -10.9119 O   0  0  0  0  0  0
   -3.4303    7.1398  -11.9490 C   0  0  0  0  0  0
   -2.8614    7.6022  -12.9293 O   0  0  0  0  0  0
   -4.9472    7.2392  -11.7400 C   0  0  0  0  0  0
   -5.5193    8.6847  -11.6068 C   0  0  0  0  0  0
   -6.9246    8.8535  -11.0010 C   0  0  0  0  0  0
   -7.4985   10.2231  -11.2230 C   0  0  0  0  0  0
   -7.0632   11.0618  -11.9999 O   0  0  0  0  0  0
   -8.5894   10.4497  -10.4754 O   0  0  0  0  0  0
   -4.5938    9.6730  -10.8863 C   0  0  0  0  0  0
   -3.3900    9.6909  -11.0517 O   0  0  0  0  0  0
   -5.2148   10.6020  -10.1296 O   0  0  0  0  0  0
   -4.6700   -3.4735   -4.5802 H   0  0  0  0  0  0
   -5.0513   -2.8561   -6.0274 H   0  0  0  0  0  0
   -3.2110   -4.4087   -7.7264 H   0  0  0  0  0  0
   -3.4348    1.2660   -8.3629 H   0  0  0  0  0  0
   -2.8022    0.8694  -11.1551 H   0  0  0  0  0  0
    2.0420    4.9290  -15.3009 H   0  0  0  0  0  0
    5.1100    9.3707  -10.1120 H   0  0  0  0  0  0
   -8.8412   11.3859  -10.6218 H   0  0  0  0  0  0
   -4.6278   11.2894   -9.7435 H   0  0  0  0  0  0
  1  2  1  0  0  0
  2  3  1  0  0  0
  3  4  1  0  0  0
  4  5  1  0  0  0
  5  6  1  0  0  0
  5  7  1  0  0  0
  7  8  1  0  0  0
  7 39  1  0  0  0
  8  9  1  0  0  0
  8 27  1  0  0  0
  9 10  1  0  0  0
 10 11  1  0  0  0
 10 12  1  0  0  0
 12 13  1  0  0  0
 13 14  1  0  0  0
 13 26  1  0  0  0
 14 15  1  0  0  0
 15 16  1  0  0  0
 16 17  1  0  0  0
 17 18  1  0  0  0
 18 19  1  0  0  0
 18 25  1  0  0  0
 19 20  1  0  0  0
 20 21  1  0  0  0
 20 24  1  0  0  0
 21 22  1  0  0  0
 21 23  1  0  0  0
 23 51  1  0  0  0
 23 52  1  0  0  0
 24 53  1  0  0  0
 25 54  1  0  0  0
 26 55  1  0  0  0
 27 28  1  0  0  0
 28 29  2  0  0  0
 28 30  1  0  0  0
 30 31  1  0  0  0
 31 32  1  0  0  0
 31 36  1  0  0  0
 32 33  1  0  0  0
 33 34  2  0  0  0
 33 35  1  0  0  0
 35 56  1  0  0  0
 36 37  2  0  0  0
 36 38  1  0  0  0
 38 57  1  0  0  0
 39 40  1  0  0  0
 40 41  2  0  0  0
 40 42  1  0  0  0
 42 43  1  0  0  0
 43 44  1  0  0  0
 43 48  1  0  0  0
 44 45  1  0  0  0
 45 46  2  0  0  0
 45 47  1  0  0  0
 47 58  1  0  0  0
 48 49  2  0  0  0
 48 50  1  0  0  0
 50 59  1  0  0  0
M  END
>  <AUTHOR>
    GENERATED BY OPEN BABEL 2.4.1

>  <CHROM.1>
160.49753358,92.09608726,-72.14326001,89.87854100,-169.50168264,122.01325324
-78.84610659,-51.07659984,111.02255472,53.07034927,-18.18369462,67.30695565
-63.92383834,96.47142861,-23.53307609,-88.29960405,-113.98862435,-59.78507001
-67.53475317,158.20741154,-86.52527752,-179.18755335,148.80984734,-11.08171987
159.20216345,-9.39209349,-81.24124541,-90.21842000,-72.00293820,175.45991588
-173.34319376,9.02313178,117.39138301,-162.65314656,-166.16832491,39.74605845
13.38067927,174.80960577,-173.99031895,-1.51628639,5.24813578,-10.82956992
-1.42228992,-0.25554780,2.84647392

>  <COMPND>
    UNNAMED

>  <MASTER>
        0    0    0    0    0    0    0    0  109    0  109    0

>  <Name>
FB1.pdb

>  <RI>
0

>  <Rbt.Current_Directory>
/home/fc/tossine/FB1_39/p3/3_clust03

>  <Rbt.Executable>
rbdock/0.1.0

>  <Rbt.Library>
librxdock.so/0.1.0

>  <Rbt.Parameter_File>
/cluster/rxdock/data/scripts/dock.prm

>  <Rbt.Receptor>
rx_4.prm

>  <SCORE>
44.2409

>  <SCORE.INTER>
17.3471

>  <SCORE.INTER.CONST>
1

>  <SCORE.INTER.POLAR>
-1.46504

>  <SCORE.INTER.REPUL>
1.33546

>  <SCORE.INTER.ROT>
32

>  <SCORE.INTER.VDW>
-21.7491

>  <SCORE.INTER.norm>
0.346941

>  <SCORE.INTRA>
23.3414

>  <SCORE.INTRA.DIHEDRAL>
28.8959

>  <SCORE.INTRA.DIHEDRAL.0>
47.3121

>  <SCORE.INTRA.POLAR>
0.782368

>  <SCORE.INTRA.POLAR.0>
-1.47808

>  <SCORE.INTRA.REPUL>
0

>  <SCORE.INTRA.REPUL.0>
0

>  <SCORE.INTRA.VDW>
6.2334

>  <SCORE.INTRA.VDW.0>
-2.78316

>  <SCORE.INTRA.norm>
0.466828

>  <SCORE.RESTR>
3.55245

>  <SCORE.RESTR.CAVITY>
3.55245

>  <SCORE.RESTR.norm>
0.0710489

>  <SCORE.SYSTEM>
0

>  <SCORE.SYSTEM.CONST>
0

>  <SCORE.SYSTEM.DIHEDRAL>
0

>  <SCORE.SYSTEM.norm>
0

>  <SCORE.heavy>
50

>  <SCORE.norm>
0.884819

$$$$
