FB1.pdb
  RxDock  10072015023D
librxdock.so/0.1.0
 59 58  0  0  0  0  0  0  0  0999 V2000
   -1.7429   -6.5299   -8.7063 C   0  0  0  0  0  0
   -2.5068   -5.5594   -9.6040 C   0  0  0  0  0  0
   -3.3379   -4.5590   -8.7838 C   0  0  0  0  0  0
   -2.9756   -3.0792   -9.0637 C   0  0  0  0  0  0
   -3.9671   -2.0284   -8.4528 C   0  0  0  0  0  0
   -3.5588   -1.7726   -6.9836 C   0  0  0  0  0  0
   -4.0311   -0.6690   -9.2688 C   0  0  0  0  0  0
   -2.7029    0.2263   -9.2927 C   0  0  0  0  0  0
   -1.3220   -0.2028   -9.9539 C   0  0  0  0  0  0
   -1.3240   -0.2610  -11.6026 C   0  0  0  0  0  0
   -1.9081   -1.6032  -12.0398 C   0  0  0  0  0  0
   -2.0902    0.9238  -12.3470 C   0  0  0  0  0  0
   -1.3942    1.9314  -13.4047 C   0  0  0  0  0  0
   -1.9540    3.3670  -13.6907 C   0  0  0  0  0  0
   -2.2786    4.3149  -12.4476 C   0  0  0  0  0  0
   -2.8713    5.7735  -12.5732 C   0  0  0  0  0  0
   -1.9265    6.9559  -12.9147 C   0  0  0  0  0  0
   -0.6288    7.1007  -12.0292 C   0  0  0  0  0  0
    0.2127    8.3624  -12.2582 C   0  0  0  0  0  0
    0.1464    9.4958  -11.1956 C   0  0  0  0  0  0
   -1.1974   10.2251  -10.8992 C   0  0  0  0  0  0
   -2.4640    9.3908  -11.0289 C   0  0  0  0  0  0
   -1.1475   10.9084   -9.5926 N   0  0  0  0  0  0
    0.5068    8.8510   -9.9473 O   0  0  0  0  0  0
   -1.0258    7.0622  -10.6542 O   0  0  0  0  0  0
   -0.0659    2.1410  -12.8964 O   0  0  0  0  0  0
   -3.0579    1.4619   -9.9707 O   0  0  0  0  0  0
   -4.1735    2.1046   -9.5376 C   0  0  0  0  0  0
   -5.1035    1.6042   -8.9341 O   0  0  0  0  0  0
   -4.0257    3.5705   -9.8391 C   0  0  0  0  0  0
   -5.3681    4.2445  -10.1645 C   0  0  0  0  0  0
   -6.2118    3.4293  -11.1529 C   0  0  0  0  0  0
   -5.4844    3.2401  -12.4638 C   0  0  0  0  0  0
   -4.6252    2.3843  -12.6454 O   0  0  0  0  0  0
   -5.8700    4.1004  -13.4179 O   0  0  0  0  0  0
   -6.1087    4.3774   -8.8267 C   0  0  0  0  0  0
   -5.7702    3.7822   -7.8150 O   0  0  0  0  0  0
   -7.1921    5.1650   -8.8701 O   0  0  0  0  0  0
   -4.5771   -0.8872  -10.6305 O   0  0  0  0  0  0
   -5.8177   -1.4901  -10.7544 C   0  0  0  0  0  0
   -6.8319   -1.1213  -10.1767 O   0  0  0  0  0  0
   -5.7905   -2.6910  -11.7091 C   0  0  0  0  0  0
   -5.7109   -2.3465  -13.2288 C   0  0  0  0  0  0
   -6.9712   -2.5624  -14.0863 C   0  0  0  0  0  0
   -6.6689   -3.1433  -15.4375 C   0  0  0  0  0  0
   -6.0376   -4.1698  -15.6479 O   0  0  0  0  0  0
   -7.1904   -2.4159  -16.4372 O   0  0  0  0  0  0
   -5.1895   -0.9374  -13.5367 C   0  0  0  0  0  0
   -5.5135    0.0416  -12.8939 O   0  0  0  0  0  0
   -4.2560   -0.8646  -14.5086 O   0  0  0  0  0  0
   -0.9241   10.2276   -8.8680 H   0  0  0  0  0  0
   -2.0865   11.2405   -9.3616 H   0  0  0  0  0  0
   -0.2140    8.2064   -9.7855 H   0  0  0  0  0  0
   -1.1150    6.1282  -10.3893 H   0  0  0  0  0  0
   -0.1285    2.2679  -11.9349 H   0  0  0  0  0  0
   -6.6001    4.6989  -13.1687 H   0  0  0  0  0  0
   -7.6211    5.3210   -7.9924 H   0  0  0  0  0  0
   -7.3693   -1.5237  -16.0722 H   0  0  0  0  0  0
   -3.6219   -0.1180  -14.4264 H   0  0  0  0  0  0
  1  2  1  0  0  0
  2  3  1  0  0  0
  3  4  1  0  0  0
  4  5  1  0  0  0
  5  6  1  0  0  0
  5  7  1  0  0  0
  7  8  1  0  0  0
  7 39  1  0  0  0
  8  9  1  0  0  0
  8 27  1  0  0  0
  9 10  1  0  0  0
 10 11  1  0  0  0
 10 12  1  0  0  0
 12 13  1  0  0  0
 13 14  1  0  0  0
 13 26  1  0  0  0
 14 15  1  0  0  0
 15 16  1  0  0  0
 16 17  1  0  0  0
 17 18  1  0  0  0
 18 19  1  0  0  0
 18 25  1  0  0  0
 19 20  1  0  0  0
 20 21  1  0  0  0
 20 24  1  0  0  0
 21 22  1  0  0  0
 21 23  1  0  0  0
 23 51  1  0  0  0
 23 52  1  0  0  0
 24 53  1  0  0  0
 25 54  1  0  0  0
 26 55  1  0  0  0
 27 28  1  0  0  0
 28 29  2  0  0  0
 28 30  1  0  0  0
 30 31  1  0  0  0
 31 32  1  0  0  0
 31 36  1  0  0  0
 32 33  1  0  0  0
 33 34  2  0  0  0
 33 35  1  0  0  0
 35 56  1  0  0  0
 36 37  2  0  0  0
 36 38  1  0  0  0
 38 57  1  0  0  0
 39 40  1  0  0  0
 40 41  2  0  0  0
 40 42  1  0  0  0
 42 43  1  0  0  0
 43 44  1  0  0  0
 43 48  1  0  0  0
 44 45  1  0  0  0
 45 46  2  0  0  0
 45 47  1  0  0  0
 47 58  1  0  0  0
 48 49  2  0  0  0
 48 50  1  0  0  0
 50 59  1  0  0  0
M  END
>  <AUTHOR>
    GENERATED BY OPEN BABEL 2.4.1

>  <CHROM.1>
121.79680865,169.31590572,84.37520911,-65.71112870,64.57573033,55.66267376
70.28502772,50.14304561,-82.60210213,121.07073488,-155.57634183,49.66512172
-42.95519266,-178.80328811,-80.39418901,-51.08132727,-172.90366254,105.07673792
83.20647733,-61.86938718,32.79108428,-64.78470776,-56.79405930,-22.63950883
147.14174979,-46.18731808,-60.04429315,-14.15762924,81.21823119,-3.47824426
-174.48301905,52.20772962,-74.69468592,-107.40390157,-139.48665323,-40.93489905
54.25428900,19.66487633,-151.39665210,-3.62618717,1.79049105,-11.29158340
-2.13857814,-1.05690534,-0.44350356

>  <COMPND>
    UNNAMED

>  <MASTER>
        0    0    0    0    0    0    0    0  109    0  109    0

>  <Name>
FB1.pdb

>  <RI>
0

>  <Rbt.Current_Directory>
/home/fc/tossine/FB1_39/p3/3_clust03

>  <Rbt.Executable>
rbdock/0.1.0

>  <Rbt.Library>
librxdock.so/0.1.0

>  <Rbt.Parameter_File>
/cluster/rxdock/data/scripts/dock.prm

>  <Rbt.Receptor>
rx_0.prm

>  <SCORE>
33.567

>  <SCORE.INTER>
9.71347

>  <SCORE.INTER.CONST>
1

>  <SCORE.INTER.POLAR>
-2.00463

>  <SCORE.INTER.REPUL>
0.213111

>  <SCORE.INTER.ROT>
32

>  <SCORE.INTER.VDW>
-21.9364

>  <SCORE.INTER.norm>
0.194269

>  <SCORE.INTRA>
23.8301

>  <SCORE.INTRA.DIHEDRAL>
35.8616

>  <SCORE.INTRA.DIHEDRAL.0>
47.3121

>  <SCORE.INTRA.POLAR>
0.736658

>  <SCORE.INTRA.POLAR.0>
-1.47808

>  <SCORE.INTRA.REPUL>
0.0137566

>  <SCORE.INTRA.REPUL.0>
0

>  <SCORE.INTRA.VDW>
3.32593

>  <SCORE.INTRA.VDW.0>
-2.78316

>  <SCORE.INTRA.norm>
0.476603

>  <SCORE.RESTR>
0.0233643

>  <SCORE.RESTR.CAVITY>
0.0233643

>  <SCORE.RESTR.norm>
0.000467285

>  <SCORE.SYSTEM>
0

>  <SCORE.SYSTEM.CONST>
0

>  <SCORE.SYSTEM.DIHEDRAL>
0

>  <SCORE.SYSTEM.norm>
0

>  <SCORE.heavy>
50

>  <SCORE.norm>
0.671339

$$$$
