FB1.pdb
  RxDock  10072015553D
librxdock.so/0.1.0
 59 58  0  0  0  0  0  0  0  0999 V2000
   -8.7531    8.0954   -9.2041 C   0  0  0  0  0  0
   -8.1137    6.7713   -8.7928 C   0  0  0  0  0  0
   -6.8993    6.4282   -9.6713 C   0  0  0  0  0  0
   -7.2496    5.5355  -10.8878 C   0  0  0  0  0  0
   -6.0231    5.0983  -11.7626 C   0  0  0  0  0  0
   -5.4727    6.3488  -12.4864 C   0  0  0  0  0  0
   -4.8805    4.3734  -10.9338 C   0  0  0  0  0  0
   -4.9305    2.7734  -10.8750 C   0  0  0  0  0  0
   -6.0384    1.9197  -10.1186 C   0  0  0  0  0  0
   -5.4917    0.5322   -9.4134 C   0  0  0  0  0  0
   -5.9586   -0.6555  -10.2534 C   0  0  0  0  0  0
   -3.9166    0.4357   -9.1797 C   0  0  0  0  0  0
   -3.1196   -0.9500   -8.9279 C   0  0  0  0  0  0
   -2.0973   -1.1298   -7.7538 C   0  0  0  0  0  0
   -2.5351   -2.0112   -6.4966 C   0  0  0  0  0  0
   -1.7713   -2.0286   -5.1142 C   0  0  0  0  0  0
   -1.4310   -3.3868   -4.4457 C   0  0  0  0  0  0
   -1.3211   -3.3906   -2.8719 C   0  0  0  0  0  0
   -1.0222   -4.7440   -2.2150 C   0  0  0  0  0  0
    0.4550   -5.2271   -2.1610 C   0  0  0  0  0  0
    1.2748   -5.1202   -0.8412 C   0  0  0  0  0  0
    2.4084   -4.1042   -0.8283 C   0  0  0  0  0  0
    0.3823   -4.9292    0.3179 N   0  0  0  0  0  0
    0.3879   -6.6475   -2.4472 O   0  0  0  0  0  0
   -0.2929   -2.4670   -2.4986 O   0  0  0  0  0  0
   -4.1454   -1.9274   -8.6851 O   0  0  0  0  0  0
   -5.0044    2.3182  -12.2533 O   0  0  0  0  0  0
   -4.9553    0.9770  -12.4636 C   0  0  0  0  0  0
   -5.8285    0.2950  -12.9653 O   0  0  0  0  0  0
   -3.5925    0.4823  -12.0641 C   0  0  0  0  0  0
   -2.5116    0.8282  -13.1007 C   0  0  0  0  0  0
   -1.0949    0.7714  -12.5151 C   0  0  0  0  0  0
   -0.8791   -0.5031  -11.7326 C   0  0  0  0  0  0
   -0.4247   -0.5313  -10.5940 O   0  0  0  0  0  0
   -1.2351   -1.6087  -12.4033 O   0  0  0  0  0  0
   -2.6576   -0.2075  -14.2240 C   0  0  0  0  0  0
   -1.7116   -0.6206  -14.8773 O   0  0  0  0  0  0
   -3.9198   -0.5878  -14.4650 O   0  0  0  0  0  0
   -3.5388    4.8722  -11.3222 O   0  0  0  0  0  0
   -3.1048    6.0764  -10.7934 C   0  0  0  0  0  0
   -3.8363    6.9222  -10.2956 O   0  0  0  0  0  0
   -1.5832    6.2449  -10.8969 C   0  0  0  0  0  0
   -0.9261    5.6819  -12.1953 C   0  0  0  0  0  0
    0.5664    5.9737  -12.4357 C   0  0  0  0  0  0
    0.8836    7.4413  -12.4416 C   0  0  0  0  0  0
    1.4723    8.0476  -11.5571 O   0  0  0  0  0  0
    0.4626    8.0529  -13.5592 O   0  0  0  0  0  0
   -1.1348    4.1784  -12.4152 C   0  0  0  0  0  0
   -0.9778    3.3545  -11.5359 O   0  0  0  0  0  0
   -1.6116    3.8311  -13.6290 O   0  0  0  0  0  0
   -0.1868   -5.7654    0.4426 H   0  0  0  0  0  0
   -0.2852   -4.1868    0.0973 H   0  0  0  0  0  0
    0.5923   -6.7163   -3.4037 H   0  0  0  0  0  0
    0.5700   -2.8813   -2.6836 H   0  0  0  0  0  0
   -4.6869   -2.0010   -9.4888 H   0  0  0  0  0  0
   -1.2572   -2.4285  -11.8734 H   0  0  0  0  0  0
   -4.0130   -1.5178  -14.7896 H   0  0  0  0  0  0
    0.9076    8.9261  -13.5867 H   0  0  0  0  0  0
   -2.0835    4.5439  -14.1142 H   0  0  0  0  0  0
  1  2  1  0  0  0
  2  3  1  0  0  0
  3  4  1  0  0  0
  4  5  1  0  0  0
  5  6  1  0  0  0
  5  7  1  0  0  0
  7  8  1  0  0  0
  7 39  1  0  0  0
  8  9  1  0  0  0
  8 27  1  0  0  0
  9 10  1  0  0  0
 10 11  1  0  0  0
 10 12  1  0  0  0
 12 13  1  0  0  0
 13 14  1  0  0  0
 13 26  1  0  0  0
 14 15  1  0  0  0
 15 16  1  0  0  0
 16 17  1  0  0  0
 17 18  1  0  0  0
 18 19  1  0  0  0
 18 25  1  0  0  0
 19 20  1  0  0  0
 20 21  1  0  0  0
 20 24  1  0  0  0
 21 22  1  0  0  0
 21 23  1  0  0  0
 23 51  1  0  0  0
 23 52  1  0  0  0
 24 53  1  0  0  0
 25 54  1  0  0  0
 26 55  1  0  0  0
 27 28  1  0  0  0
 28 29  2  0  0  0
 28 30  1  0  0  0
 30 31  1  0  0  0
 31 32  1  0  0  0
 31 36  1  0  0  0
 32 33  1  0  0  0
 33 34  2  0  0  0
 33 35  1  0  0  0
 35 56  1  0  0  0
 36 37  2  0  0  0
 36 38  1  0  0  0
 38 57  1  0  0  0
 39 40  1  0  0  0
 40 41  2  0  0  0
 40 42  1  0  0  0
 42 43  1  0  0  0
 43 44  1  0  0  0
 43 48  1  0  0  0
 44 45  1  0  0  0
 45 46  2  0  0  0
 45 47  1  0  0  0
 47 58  1  0  0  0
 48 49  2  0  0  0
 48 50  1  0  0  0
 50 59  1  0  0  0
M  END
>  <AUTHOR>
    GENERATED BY OPEN BABEL 2.4.1

>  <CHROM.1>
-93.08946281,-176.73448840,-68.79380497,93.69869570,-68.37653074,79.89091491
-144.29474283,175.16578368,-105.82233025,-161.01792193,-131.17962658,106.08412660
62.96368440,-165.80182610,-132.40147412,-151.88114980,178.39252442,82.10182964
-75.71931428,102.48899558,-110.82004426,97.49722020,65.69355520,117.76998236
-75.85946631,160.37612975,47.92933987,-147.45722266,-129.86065579,-169.64628074
-149.23419963,-18.62950477,37.07580320,172.63431492,-56.87704534,-46.15019028
107.08684464,-165.46532699,-21.84947406,-2.64854375,1.40079289,-9.50122688
2.03237700,0.99911711,-1.16598498

>  <COMPND>
    UNNAMED

>  <MASTER>
        0    0    0    0    0    0    0    0  109    0  109    0

>  <Name>
FB1.pdb

>  <RI>
0

>  <Rbt.Current_Directory>
/home/fc/tossine/FB1_39/p3/3_clust03

>  <Rbt.Executable>
rbdock/0.1.0

>  <Rbt.Library>
librxdock.so/0.1.0

>  <Rbt.Parameter_File>
/cluster/rxdock/data/scripts/dock.prm

>  <Rbt.Receptor>
rx_1.prm

>  <SCORE>
73.0993

>  <SCORE.INTER>
19.6999

>  <SCORE.INTER.CONST>
1

>  <SCORE.INTER.POLAR>
-0.573266

>  <SCORE.INTER.REPUL>
1.19298

>  <SCORE.INTER.ROT>
32

>  <SCORE.INTER.VDW>
-21.7159

>  <SCORE.INTER.norm>
0.393998

>  <SCORE.INTRA>
51.3429

>  <SCORE.INTRA.DIHEDRAL>
58.4976

>  <SCORE.INTRA.DIHEDRAL.0>
47.3121

>  <SCORE.INTRA.POLAR>
1.47808

>  <SCORE.INTRA.POLAR.0>
-1.47808

>  <SCORE.INTRA.REPUL>
0

>  <SCORE.INTRA.REPUL.0>
0

>  <SCORE.INTRA.VDW>
17.0686

>  <SCORE.INTRA.VDW.0>
-2.78316

>  <SCORE.INTRA.norm>
1.02686

>  <SCORE.RESTR>
2.05648

>  <SCORE.RESTR.CAVITY>
2.05648

>  <SCORE.RESTR.norm>
0.0411296

>  <SCORE.SYSTEM>
0

>  <SCORE.SYSTEM.CONST>
0

>  <SCORE.SYSTEM.DIHEDRAL>
0

>  <SCORE.SYSTEM.norm>
0

>  <SCORE.heavy>
50

>  <SCORE.norm>
1.46199

$$$$
