FB1.pdb
  RxDock  10072015143D
librxdock.so/0.1.0
 59 58  0  0  0  0  0  0  0  0999 V2000
   -1.3829   -2.8585  -11.9225 C   0  0  0  0  0  0
   -1.7277   -1.3923  -11.6721 C   0  0  0  0  0  0
   -0.4650   -0.5255  -11.5366 C   0  0  0  0  0  0
   -0.7565    0.9959  -11.5437 C   0  0  0  0  0  0
   -1.0985    1.6105  -10.1417 C   0  0  0  0  0  0
   -0.2889    2.9169   -9.9737 C   0  0  0  0  0  0
   -2.6487    1.8718   -9.9259 C   0  0  0  0  0  0
   -3.3565    2.9047  -10.9252 C   0  0  0  0  0  0
   -2.9116    3.1752  -12.4275 C   0  0  0  0  0  0
   -1.5860    4.1416  -12.6013 C   0  0  0  0  0  0
   -1.1231    4.0731  -14.0557 C   0  0  0  0  0  0
   -1.7659    5.6664  -12.1684 C   0  0  0  0  0  0
   -0.5372    6.6847  -11.9003 C   0  0  0  0  0  0
    0.4360    6.5249  -10.6823 C   0  0  0  0  0  0
    0.2114    7.4575   -9.4060 C   0  0  0  0  0  0
    0.7582    8.9336   -9.2766 C   0  0  0  0  0  0
    0.5454    9.9329  -10.4442 C   0  0  0  0  0  0
   -0.2468   11.2547  -10.1061 C   0  0  0  0  0  0
   -1.7416   11.0922   -9.8032 C   0  0  0  0  0  0
   -2.6166   10.2977  -10.8138 C   0  0  0  0  0  0
   -4.0827    9.9111  -10.4582 C   0  0  0  0  0  0
   -5.0528   11.0634  -10.2379 C   0  0  0  0  0  0
   -4.6233    8.9460  -11.4343 N   0  0  0  0  0  0
   -2.7275   11.1687  -11.9683 O   0  0  0  0  0  0
    0.3819   11.8698   -8.9765 O   0  0  0  0  0  0
    0.2977    6.5712  -13.0651 O   0  0  0  0  0  0
   -4.7431    2.4823  -11.0310 O   0  0  0  0  0  0
   -5.6916    3.4506  -10.9410 C   0  0  0  0  0  0
   -5.5342    4.5728  -10.4988 O   0  0  0  0  0  0
   -6.9554    2.9396  -11.5757 C   0  0  0  0  0  0
   -7.2006    1.4500  -11.2869 C   0  0  0  0  0  0
   -7.4696    1.1748   -9.8018 C   0  0  0  0  0  0
   -7.2780   -0.2879   -9.4750 C   0  0  0  0  0  0
   -6.7850   -1.0978  -10.2527 O   0  0  0  0  0  0
   -7.6986   -0.6203   -8.2456 O   0  0  0  0  0  0
   -8.4241    1.0536  -12.1246 C   0  0  0  0  0  0
   -9.1125    1.8648  -12.7249 O   0  0  0  0  0  0
   -8.7074   -0.2561  -12.1045 O   0  0  0  0  0  0
   -3.3980    0.5957   -9.8256 O   0  0  0  0  0  0
   -2.9214   -0.3828   -8.9692 C   0  0  0  0  0  0
   -1.7711   -0.4461   -8.5555 O   0  0  0  0  0  0
   -4.0043   -1.3992   -8.5838 C   0  0  0  0  0  0
   -3.4987   -2.6865   -7.8614 C   0  0  0  0  0  0
   -4.5127   -3.4967   -7.0332 C   0  0  0  0  0  0
   -4.9532   -2.7856   -5.7864 C   0  0  0  0  0  0
   -4.3022   -2.6826   -4.7558 O   0  0  0  0  0  0
   -6.1692   -2.2327   -5.9134 O   0  0  0  0  0  0
   -2.7595   -3.6780   -8.7684 C   0  0  0  0  0  0
   -3.3351   -4.4635   -9.4953 O   0  0  0  0  0  0
   -1.4160   -3.5524   -8.7905 O   0  0  0  0  0  0
   -3.9773    8.1628  -11.5225 H   0  0  0  0  0  0
   -4.6321    9.3854  -12.3575 H   0  0  0  0  0  0
   -1.8027   11.3054  -12.2639 H   0  0  0  0  0  0
    0.0080   12.7638   -8.8696 H   0  0  0  0  0  0
   -0.1937    6.9292  -13.8233 H   0  0  0  0  0  0
   -7.9917    0.1268   -7.6894 H   0  0  0  0  0  0
   -9.4776   -0.5177  -12.6677 H   0  0  0  0  0  0
   -6.5252   -2.5314   -6.7767 H   0  0  0  0  0  0
   -0.9469   -4.1675   -9.3970 H   0  0  0  0  0  0
  1  2  1  0  0  0
  2  3  1  0  0  0
  3  4  1  0  0  0
  4  5  1  0  0  0
  5  6  1  0  0  0
  5  7  1  0  0  0
  7  8  1  0  0  0
  7 39  1  0  0  0
  8  9  1  0  0  0
  8 27  1  0  0  0
  9 10  1  0  0  0
 10 11  1  0  0  0
 10 12  1  0  0  0
 12 13  1  0  0  0
 13 14  1  0  0  0
 13 26  1  0  0  0
 14 15  1  0  0  0
 15 16  1  0  0  0
 16 17  1  0  0  0
 17 18  1  0  0  0
 18 19  1  0  0  0
 18 25  1  0  0  0
 19 20  1  0  0  0
 20 21  1  0  0  0
 20 24  1  0  0  0
 21 22  1  0  0  0
 21 23  1  0  0  0
 23 51  1  0  0  0
 23 52  1  0  0  0
 24 53  1  0  0  0
 25 54  1  0  0  0
 26 55  1  0  0  0
 27 28  1  0  0  0
 28 29  2  0  0  0
 28 30  1  0  0  0
 30 31  1  0  0  0
 31 32  1  0  0  0
 31 36  1  0  0  0
 32 33  1  0  0  0
 33 34  2  0  0  0
 33 35  1  0  0  0
 35 56  1  0  0  0
 36 37  2  0  0  0
 36 38  1  0  0  0
 38 57  1  0  0  0
 39 40  1  0  0  0
 40 41  2  0  0  0
 40 42  1  0  0  0
 42 43  1  0  0  0
 43 44  1  0  0  0
 43 48  1  0  0  0
 44 45  1  0  0  0
 45 46  2  0  0  0
 45 47  1  0  0  0
 47 58  1  0  0  0
 48 49  2  0  0  0
 48 50  1  0  0  0
 50 59  1  0  0  0
M  END
>  <AUTHOR>
    GENERATED BY OPEN BABEL 2.4.1

>  <CHROM.1>
169.34919286,86.72240601,134.03382660,-61.55301146,29.51750755,48.79837171
-77.86949419,134.51715741,168.64512384,163.94142159,-68.40312938,-100.77083509
66.87817747,-83.41278921,47.78227333,121.46844354,-69.46410124,-51.18215373
169.32087584,170.50732837,63.14769869,59.88053762,52.08508406,-17.11928825
38.16661165,65.93757992,-162.22943936,-8.80646928,9.84663422,-5.63806342
-178.08172344,-20.36368564,168.21430256,159.43291934,-69.47674026,-80.72359360
-76.89844572,6.92609740,-177.89518486,-3.35148853,2.87932844,-10.23892854
-1.84222565,-0.09335495,-0.18867952

>  <COMPND>
    UNNAMED

>  <MASTER>
        0    0    0    0    0    0    0    0  109    0  109    0

>  <Name>
FB1.pdb

>  <RI>
0

>  <Rbt.Current_Directory>
/home/fc/tossine/FB1_39/p3/3_clust03

>  <Rbt.Executable>
rbdock/0.1.0

>  <Rbt.Library>
librxdock.so/0.1.0

>  <Rbt.Parameter_File>
/cluster/rxdock/data/scripts/dock.prm

>  <Rbt.Receptor>
rx_0.prm

>  <SCORE>
22.9298

>  <SCORE.INTER>
15.0083

>  <SCORE.INTER.CONST>
1

>  <SCORE.INTER.POLAR>
-1.37279

>  <SCORE.INTER.REPUL>
0.673749

>  <SCORE.INTER.ROT>
32

>  <SCORE.INTER.VDW>
-21.0929

>  <SCORE.INTER.norm>
0.300167

>  <SCORE.INTRA>
7.6215

>  <SCORE.INTRA.DIHEDRAL>
9.50918

>  <SCORE.INTRA.DIHEDRAL.0>
47.3121

>  <SCORE.INTRA.POLAR>
1.47808

>  <SCORE.INTRA.POLAR.0>
-1.47808

>  <SCORE.INTRA.REPUL>
0

>  <SCORE.INTRA.REPUL.0>
0

>  <SCORE.INTRA.VDW>
-2.15855

>  <SCORE.INTRA.VDW.0>
-2.78316

>  <SCORE.INTRA.norm>
0.15243

>  <SCORE.RESTR>
0.299935

>  <SCORE.RESTR.CAVITY>
0.299935

>  <SCORE.RESTR.norm>
0.0059987

>  <SCORE.SYSTEM>
0

>  <SCORE.SYSTEM.CONST>
0

>  <SCORE.SYSTEM.DIHEDRAL>
0

>  <SCORE.SYSTEM.norm>
0

>  <SCORE.heavy>
50

>  <SCORE.norm>
0.458596

$$$$
