FB1.pdb
  RxDock  09132005053D
librxdock.so/0.1.0
 59 58  0  0  0  0  0  0  0  0999 V2000
   -7.6074    1.5521  -10.0903 C   0  0  0  0  0  0
   -7.3731    1.0348  -11.5077 C   0  0  0  0  0  0
   -5.8809    1.0467  -11.8787 C   0  0  0  0  0  0
   -5.3217    2.4668  -12.1437 C   0  0  0  0  0  0
   -3.7736    2.5334  -12.3872 C   0  0  0  0  0  0
   -3.4716    3.7777  -13.2540 C   0  0  0  0  0  0
   -2.9222    2.5542  -11.0484 C   0  0  0  0  0  0
   -2.4897    3.9903  -10.4856 C   0  0  0  0  0  0
   -1.3442    4.9065  -11.0994 C   0  0  0  0  0  0
   -0.0272    4.0924  -11.6687 C   0  0  0  0  0  0
   -0.2396    3.8045  -13.1540 C   0  0  0  0  0  0
    1.3846    4.8047  -11.4585 C   0  0  0  0  0  0
    1.6978    6.3381  -11.8698 C   0  0  0  0  0  0
    1.0339    7.0274  -13.1108 C   0  0  0  0  0  0
   -0.4827    7.5110  -12.9873 C   0  0  0  0  0  0
   -1.0009    8.5450  -11.9117 C   0  0  0  0  0  0
   -1.1994   10.0307  -12.3129 C   0  0  0  0  0  0
   -1.4462   11.0523  -11.1362 C   0  0  0  0  0  0
   -2.9062   11.2681  -10.7188 C   0  0  0  0  0  0
   -3.6203   12.5701  -11.1804 C   0  0  0  0  0  0
   -3.7323   12.9171  -12.6945 C   0  0  0  0  0  0
   -4.5650   14.1411  -13.0492 C   0  0  0  0  0  0
   -2.3969   12.9892  -13.3173 N   0  0  0  0  0  0
   -4.9899   12.4185  -10.7276 O   0  0  0  0  0  0
   -0.7094   10.5986   -9.9956 O   0  0  0  0  0  0
    1.2768    7.1177  -10.7377 O   0  0  0  0  0  0
   -3.6808    4.8218  -10.5354 O   0  0  0  0  0  0
   -4.6873    4.5096   -9.6781 C   0  0  0  0  0  0
   -4.6823    3.6094   -8.8601 O   0  0  0  0  0  0
   -5.7804    5.5302   -9.8356 C   0  0  0  0  0  0
   -6.3550    5.5647  -11.2607 C   0  0  0  0  0  0
   -7.8396    5.9500  -11.2877 C   0  0  0  0  0  0
   -8.6034    5.2541  -10.1851 C   0  0  0  0  0  0
   -8.7796    5.7379   -9.0722 O   0  0  0  0  0  0
   -9.0758    4.0500  -10.5400 O   0  0  0  0  0  0
   -5.5276    6.6083  -12.0239 C   0  0  0  0  0  0
   -4.8482    6.3354  -13.0019 O   0  0  0  0  0  0
   -5.5715    7.8405  -11.4989 O   0  0  0  0  0  0
   -3.5522    1.7149  -10.0002 O   0  0  0  0  0  0
   -2.7362    1.1266   -9.0482 C   0  0  0  0  0  0
   -3.0584    0.9226   -7.8851 O   0  0  0  0  0  0
   -1.3601    0.7486   -9.6120 C   0  0  0  0  0  0
   -1.3401   -0.4641  -10.5936 C   0  0  0  0  0  0
   -1.0739   -0.1840  -12.0839 C   0  0  0  0  0  0
   -2.3319   -0.1067  -12.9001 C   0  0  0  0  0  0
   -3.3621   -0.7301  -12.6839 O   0  0  0  0  0  0
   -2.2289    0.7577  -13.9211 O   0  0  0  0  0  0
   -0.4090   -1.6084  -10.1745 C   0  0  0  0  0  0
    0.4020   -1.5042   -9.2755 O   0  0  0  0  0  0
   -0.6196   -2.7855  -10.8001 O   0  0  0  0  0  0
   -2.0199   12.0469  -13.4093 H   0  0  0  0  0  0
   -1.7614   13.4655  -12.6733 H   0  0  0  0  0  0
   -5.3895   13.3056  -10.8491 H   0  0  0  0  0  0
   -0.8246   11.2507   -9.2800 H   0  0  0  0  0  0
    1.5561    8.0368  -10.8850 H   0  0  0  0  0  0
   -9.5779    3.5789   -9.8476 H   0  0  0  0  0  0
   -5.0405    8.5150  -11.9908 H   0  0  0  0  0  0
   -3.1104    0.7940  -14.3489 H   0  0  0  0  0  0
   -0.0178   -3.5157  -10.5342 H   0  0  0  0  0  0
  1  2  1  0  0  0
  2  3  1  0  0  0
  3  4  1  0  0  0
  4  5  1  0  0  0
  5  6  1  0  0  0
  5  7  1  0  0  0
  7  8  1  0  0  0
  7 39  1  0  0  0
  8  9  1  0  0  0
  8 27  1  0  0  0
  9 10  1  0  0  0
 10 11  1  0  0  0
 10 12  1  0  0  0
 12 13  1  0  0  0
 13 14  1  0  0  0
 13 26  1  0  0  0
 14 15  1  0  0  0
 15 16  1  0  0  0
 16 17  1  0  0  0
 17 18  1  0  0  0
 18 19  1  0  0  0
 18 25  1  0  0  0
 19 20  1  0  0  0
 20 21  1  0  0  0
 20 24  1  0  0  0
 21 22  1  0  0  0
 21 23  1  0  0  0
 23 51  1  0  0  0
 23 52  1  0  0  0
 24 53  1  0  0  0
 25 54  1  0  0  0
 26 55  1  0  0  0
 27 28  1  0  0  0
 28 29  2  0  0  0
 28 30  1  0  0  0
 30 31  1  0  0  0
 31 32  1  0  0  0
 31 36  1  0  0  0
 32 33  1  0  0  0
 33 34  2  0  0  0
 33 35  1  0  0  0
 35 56  1  0  0  0
 36 37  2  0  0  0
 36 38  1  0  0  0
 38 57  1  0  0  0
 39 40  1  0  0  0
 40 41  2  0  0  0
 40 42  1  0  0  0
 42 43  1  0  0  0
 43 44  1  0  0  0
 43 48  1  0  0  0
 44 45  1  0  0  0
 45 46  2  0  0  0
 45 47  1  0  0  0
 47 58  1  0  0  0
 48 49  2  0  0  0
 48 50  1  0  0  0
 50 59  1  0  0  0
M  END
>  <AUTHOR>
    GENERATED BY OPEN BABEL 2.4.1

>  <CHROM.1>
-73.35467200,174.29569520,153.69651343,-94.85600300,-74.70660859,151.19693726
-36.92580147,68.65498920,92.12932194,-50.50942837,-33.38342993,76.71759782
172.34683645,58.59568486,99.14395544,-168.53424041,-89.14755070,-103.37417981
177.27691587,57.65668333,174.26455344,168.57694448,72.76081978,0.93104672
60.22701809,148.68237160,-42.36310377,118.09209781,91.66626853,-179.70787568
-179.86586925,147.03732250,-71.81925341,109.23030030,-97.61728193,-11.02585631
-31.55310161,-175.61757268,179.61174508,-3.19722371,4.92007082,-11.24546124
1.52560765,-0.12350129,3.05524943

>  <COMPND>
    UNNAMED

>  <MASTER>
        0    0    0    0    0    0    0    0  109    0  109    0

>  <Name>
FB1.pdb

>  <RI>
0

>  <Rbt.Current_Directory>
/home/fc/tossine/FB1_39/p3/3_clust03

>  <Rbt.Executable>
rbdock/0.1.0

>  <Rbt.Library>
librxdock.so/0.1.0

>  <Rbt.Parameter_File>
/cluster/rxdock/data/scripts/dock.prm

>  <Rbt.Receptor>
rx_1.prm

>  <SCORE>
16.468

>  <SCORE.INTER>
5.99001

>  <SCORE.INTER.CONST>
1

>  <SCORE.INTER.POLAR>
-1.37238

>  <SCORE.INTER.REPUL>
0.0572916

>  <SCORE.INTER.ROT>
32

>  <SCORE.INTER.VDW>
-27.0304

>  <SCORE.INTER.norm>
0.1198

>  <SCORE.INTRA>
9.88648

>  <SCORE.INTRA.DIHEDRAL>
15.2021

>  <SCORE.INTRA.DIHEDRAL.0>
47.3121

>  <SCORE.INTRA.POLAR>
1.47808

>  <SCORE.INTRA.POLAR.0>
-1.47808

>  <SCORE.INTRA.REPUL>
0

>  <SCORE.INTRA.REPUL.0>
0

>  <SCORE.INTRA.VDW>
-2.74002

>  <SCORE.INTRA.VDW.0>
-2.78316

>  <SCORE.INTRA.norm>
0.19773

>  <SCORE.RESTR>
0.591523

>  <SCORE.RESTR.CAVITY>
0.591523

>  <SCORE.RESTR.norm>
0.0118305

>  <SCORE.SYSTEM>
0

>  <SCORE.SYSTEM.CONST>
0

>  <SCORE.SYSTEM.DIHEDRAL>
0

>  <SCORE.SYSTEM.norm>
0

>  <SCORE.heavy>
50

>  <SCORE.norm>
0.32936

$$$$
