FB1.pdb
  RxDock  10072017063D
librxdock.so/0.1.0
 59 58  0  0  0  0  0  0  0  0999 V2000
   -4.3095   10.3283  -10.7110 C   0  0  0  0  0  0
   -2.8492    9.9277  -10.5151 C   0  0  0  0  0  0
   -2.4959    8.6581  -11.3073 C   0  0  0  0  0  0
   -3.0771    7.3623  -10.6886 C   0  0  0  0  0  0
   -2.5217    6.0296  -11.3017 C   0  0  0  0  0  0
   -2.2987    5.0216  -10.1507 C   0  0  0  0  0  0
   -3.4570    5.4110  -12.4244 C   0  0  0  0  0  0
   -2.8871    4.1487  -13.2293 C   0  0  0  0  0  0
   -1.5264    4.1260  -14.0515 C   0  0  0  0  0  0
   -0.2216    4.7552  -13.2621 C   0  0  0  0  0  0
    0.3460    3.6837  -12.3326 C   0  0  0  0  0  0
    0.9441    5.3366  -14.1829 C   0  0  0  0  0  0
    2.4526    5.6166  -13.6686 C   0  0  0  0  0  0
    3.6194    5.9846  -14.6481 C   0  0  0  0  0  0
    5.0024    6.4830  -14.0252 C   0  0  0  0  0  0
    6.2293    6.9927  -14.8793 C   0  0  0  0  0  0
    7.1507    8.1024  -14.3073 C   0  0  0  0  0  0
    8.5769    7.6479  -13.8089 C   0  0  0  0  0  0
    9.3415    8.6486  -12.9334 C   0  0  0  0  0  0
    8.6520    9.1771  -11.6436 C   0  0  0  0  0  0
    9.3242   10.2899  -10.7861 C   0  0  0  0  0  0
    9.3143   11.6951  -11.3714 C   0  0  0  0  0  0
    8.7906   10.2877   -9.4107 N   0  0  0  0  0  0
    7.4064    9.7597  -12.1050 O   0  0  0  0  0  0
    8.4205    6.4285  -13.0751 O   0  0  0  0  0  0
    2.3379    6.7424  -12.7820 O   0  0  0  0  0  0
   -2.7371    3.0800  -12.2557 O   0  0  0  0  0  0
   -2.7000    1.8095  -12.7351 C   0  0  0  0  0  0
   -2.4917    1.4813  -13.8876 O   0  0  0  0  0  0
   -2.8596    0.8600  -11.5799 C   0  0  0  0  0  0
   -2.8501   -0.6125  -12.0204 C   0  0  0  0  0  0
   -1.4385   -1.2129  -12.0365 C   0  0  0  0  0  0
   -1.4351   -2.6129  -11.4678 C   0  0  0  0  0  0
   -1.3551   -2.8578  -10.2689 O   0  0  0  0  0  0
   -1.5300   -3.5697  -12.4028 O   0  0  0  0  0  0
   -3.7279   -1.3613  -11.0081 C   0  0  0  0  0  0
   -3.6984   -1.1394   -9.8071 O   0  0  0  0  0  0
   -4.4980   -2.3178  -11.5448 O   0  0  0  0  0  0
   -4.8253    5.1667  -11.9067 O   0  0  0  0  0  0
   -5.6934    6.2410  -11.8058 C   0  0  0  0  0  0
   -5.4501    7.3727  -12.2039 O   0  0  0  0  0  0
   -7.0178    5.8601  -11.1312 C   0  0  0  0  0  0
   -6.9642    5.6901   -9.5811 C   0  0  0  0  0  0
   -8.2219    6.0512   -8.7699 C   0  0  0  0  0  0
   -8.3269    7.5193   -8.4729 C   0  0  0  0  0  0
   -8.1118    8.4250   -9.2667 O   0  0  0  0  0  0
   -8.7122    7.7613   -7.2107 O   0  0  0  0  0  0
   -6.5010    4.3071   -9.1069 C   0  0  0  0  0  0
   -5.5213    4.1430   -8.4069 O   0  0  0  0  0  0
   -7.3164    3.2811   -9.4291 O   0  0  0  0  0  0
    7.7835   10.4402   -9.4429 H   0  0  0  0  0  0
    9.1643   11.0997   -8.9142 H   0  0  0  0  0  0
    6.9391   10.0244  -11.2847 H   0  0  0  0  0  0
    9.2846    5.9781  -13.0459 H   0  0  0  0  0  0
    1.9004    7.4628  -13.2659 H   0  0  0  0  0  0
   -1.4113   -4.4829  -12.0780 H   0  0  0  0  0  0
   -4.4288   -2.3959  -12.5287 H   0  0  0  0  0  0
   -8.8554    8.7287   -7.1408 H   0  0  0  0  0  0
   -7.0454    2.4036   -9.0785 H   0  0  0  0  0  0
  1  2  1  0  0  0
  2  3  1  0  0  0
  3  4  1  0  0  0
  4  5  1  0  0  0
  5  6  1  0  0  0
  5  7  1  0  0  0
  7  8  1  0  0  0
  7 39  1  0  0  0
  8  9  1  0  0  0
  8 27  1  0  0  0
  9 10  1  0  0  0
 10 11  1  0  0  0
 10 12  1  0  0  0
 12 13  1  0  0  0
 13 14  1  0  0  0
 13 26  1  0  0  0
 14 15  1  0  0  0
 15 16  1  0  0  0
 16 17  1  0  0  0
 17 18  1  0  0  0
 18 19  1  0  0  0
 18 25  1  0  0  0
 19 20  1  0  0  0
 20 21  1  0  0  0
 20 24  1  0  0  0
 21 22  1  0  0  0
 21 23  1  0  0  0
 23 51  1  0  0  0
 23 52  1  0  0  0
 24 53  1  0  0  0
 25 54  1  0  0  0
 26 55  1  0  0  0
 27 28  1  0  0  0
 28 29  2  0  0  0
 28 30  1  0  0  0
 30 31  1  0  0  0
 31 32  1  0  0  0
 31 36  1  0  0  0
 32 33  1  0  0  0
 33 34  2  0  0  0
 33 35  1  0  0  0
 35 56  1  0  0  0
 36 37  2  0  0  0
 36 38  1  0  0  0
 38 57  1  0  0  0
 39 40  1  0  0  0
 40 41  2  0  0  0
 40 42  1  0  0  0
 42 43  1  0  0  0
 43 44  1  0  0  0
 43 48  1  0  0  0
 44 45  1  0  0  0
 45 46  2  0  0  0
 45 47  1  0  0  0
 47 58  1  0  0  0
 48 49  2  0  0  0
 48 50  1  0  0  0
 50 59  1  0  0  0
M  END
>  <AUTHOR>
    GENERATED BY OPEN BABEL 2.4.1

>  <CHROM.1>
-73.93733479,-168.94809706,139.65412607,172.85596219,-57.31514126,79.01499163
47.15865747,158.71699865,81.88149526,-162.35324137,170.69088642,169.72793463
-54.84255577,-175.15551463,147.12652011,106.26682495,-165.10721874,55.53245679
159.69773123,-174.41534684,72.77359884,175.39756390,-59.06596490,16.95156212
179.23280271,89.59876223,138.12645383,-41.25401807,-84.70794422,172.22126527
-2.25240929,5.55451062,76.19351138,148.02732078,-83.21920394,120.61432168
43.79708553,-173.43895954,-176.50867758,-0.82697964,5.02976632,-11.60956136
2.78875420,-0.22715702,-2.97933825

>  <COMPND>
    UNNAMED

>  <MASTER>
        0    0    0    0    0    0    0    0  109    0  109    0

>  <Name>
FB1.pdb

>  <RI>
0

>  <Rbt.Current_Directory>
/home/fc/tossine/FB1_39/p3/3_clust03

>  <Rbt.Executable>
rbdock/0.1.0

>  <Rbt.Library>
librxdock.so/0.1.0

>  <Rbt.Parameter_File>
/cluster/rxdock/data/scripts/dock.prm

>  <Rbt.Receptor>
rx_2.prm

>  <SCORE>
8.85492

>  <SCORE.INTER>
-2.196

>  <SCORE.INTER.CONST>
1

>  <SCORE.INTER.POLAR>
-2.21005

>  <SCORE.INTER.REPUL>
0.224577

>  <SCORE.INTER.ROT>
32

>  <SCORE.INTER.VDW>
-33.2047

>  <SCORE.INTER.norm>
-0.04392

>  <SCORE.INTRA>
7.72588

>  <SCORE.INTRA.DIHEDRAL>
5.81334

>  <SCORE.INTRA.DIHEDRAL.0>
47.3121

>  <SCORE.INTRA.POLAR>
1.47808

>  <SCORE.INTRA.POLAR.0>
-1.47808

>  <SCORE.INTRA.REPUL>
0

>  <SCORE.INTRA.REPUL.0>
0

>  <SCORE.INTRA.VDW>
-0.206247

>  <SCORE.INTRA.VDW.0>
-2.78316

>  <SCORE.INTRA.norm>
0.154518

>  <SCORE.RESTR>
3.32504

>  <SCORE.RESTR.CAVITY>
3.32504

>  <SCORE.RESTR.norm>
0.0665008

>  <SCORE.SYSTEM>
0

>  <SCORE.SYSTEM.CONST>
0

>  <SCORE.SYSTEM.DIHEDRAL>
0

>  <SCORE.SYSTEM.norm>
0

>  <SCORE.heavy>
50

>  <SCORE.norm>
0.177098

$$$$
