FB1.pdb
  RxDock  10072015553D
librxdock.so/0.1.0
 59 58  0  0  0  0  0  0  0  0999 V2000
   -8.8109    2.9629  -15.7879 C   0  0  0  0  0  0
   -8.6314    1.8050  -14.8088 C   0  0  0  0  0  0
   -8.3584    2.3043  -13.3804 C   0  0  0  0  0  0
   -8.1330    1.1615  -12.3592 C   0  0  0  0  0  0
   -8.1921    1.5982  -10.8538 C   0  0  0  0  0  0
   -8.4494    0.3398   -9.9930 C   0  0  0  0  0  0
   -6.8911    2.3639  -10.3651 C   0  0  0  0  0  0
   -5.5327    1.5174  -10.2988 C   0  0  0  0  0  0
   -5.2746    0.2749   -9.3408 C   0  0  0  0  0  0
   -3.6870   -0.0882   -9.0784 C   0  0  0  0  0  0
   -2.9110    1.2179   -8.9166 C   0  0  0  0  0  0
   -3.3804   -1.0491   -7.8425 C   0  0  0  0  0  0
   -1.9398   -1.1585   -7.1134 C   0  0  0  0  0  0
   -1.7672   -1.7730   -5.6821 C   0  0  0  0  0  0
   -2.0568   -3.3309   -5.4867 C   0  0  0  0  0  0
   -2.6005   -3.9729   -4.1500 C   0  0  0  0  0  0
   -1.9220   -3.6185   -2.8004 C   0  0  0  0  0  0
   -0.9191   -4.6856   -2.2132 C   0  0  0  0  0  0
   -0.3419   -4.3835   -0.8247 C   0  0  0  0  0  0
    0.8800   -3.4267   -0.7263 C   0  0  0  0  0  0
    2.3274   -3.9692   -0.9170 C   0  0  0  0  0  0
    3.0865   -4.3345    0.3509 C   0  0  0  0  0  0
    2.3478   -5.0837   -1.8834 N   0  0  0  0  0  0
    0.6903   -2.4760   -1.8052 O   0  0  0  0  0  0
   -1.5964   -5.9458   -2.1599 O   0  0  0  0  0  0
   -1.1507   -1.9932   -7.9778 O   0  0  0  0  0  0
   -5.3160    0.9915  -11.6363 O   0  0  0  0  0  0
   -4.0295    0.7659  -12.0095 C   0  0  0  0  0  0
   -3.5046   -0.3207  -12.1619 O   0  0  0  0  0  0
   -3.3805    2.0899  -12.3050 C   0  0  0  0  0  0
   -2.7254    2.1291  -13.6949 C   0  0  0  0  0  0
   -2.2137    3.5271  -14.0652 C   0  0  0  0  0  0
   -3.3604    4.4803  -14.3095 C   0  0  0  0  0  0
   -3.9978    4.5205  -15.3564 O   0  0  0  0  0  0
   -3.6194    5.2831  -13.2668 O   0  0  0  0  0  0
   -1.5538    1.1392  -13.6371 C   0  0  0  0  0  0
   -1.5188    0.1083  -14.2916 O   0  0  0  0  0  0
   -0.5893    1.4739  -12.7690 O   0  0  0  0  0  0
   -6.7135    3.6403  -11.0992 O   0  0  0  0  0  0
   -7.5492    4.7005  -10.7896 C   0  0  0  0  0  0
   -8.3709    4.6975   -9.8823 O   0  0  0  0  0  0
   -7.3351    5.9031  -11.7181 C   0  0  0  0  0  0
   -6.4395    7.0471  -11.1491 C   0  0  0  0  0  0
   -5.5857    7.8584  -12.1407 C   0  0  0  0  0  0
   -4.2500    8.2522  -11.5791 C   0  0  0  0  0  0
   -3.8197    9.3943  -11.4955 O   0  0  0  0  0  0
   -3.5463    7.1972  -11.1409 O   0  0  0  0  0  0
   -7.1795    8.0537  -10.2594 C   0  0  0  0  0  0
   -7.3275    9.2206  -10.5645 O   0  0  0  0  0  0
   -7.7553    7.5361   -9.1540 O   0  0  0  0  0  0
    2.0046   -5.9278   -1.4271 H   0  0  0  0  0  0
    3.3200   -5.2905   -2.1231 H   0  0  0  0  0  0
    1.1448   -1.6626   -1.5000 H   0  0  0  0  0  0
   -0.9512   -6.6268   -1.8944 H   0  0  0  0  0  0
   -1.2006   -1.6274   -8.8768 H   0  0  0  0  0  0
   -2.9615    5.2549  -12.5458 H   0  0  0  0  0  0
    0.1994    0.8767  -12.7819 H   0  0  0  0  0  0
   -2.6479    7.5270  -10.9281 H   0  0  0  0  0  0
   -7.6094    6.5739   -9.0162 H   0  0  0  0  0  0
  1  2  1  0  0  0
  2  3  1  0  0  0
  3  4  1  0  0  0
  4  5  1  0  0  0
  5  6  1  0  0  0
  5  7  1  0  0  0
  7  8  1  0  0  0
  7 39  1  0  0  0
  8  9  1  0  0  0
  8 27  1  0  0  0
  9 10  1  0  0  0
 10 11  1  0  0  0
 10 12  1  0  0  0
 12 13  1  0  0  0
 13 14  1  0  0  0
 13 26  1  0  0  0
 14 15  1  0  0  0
 15 16  1  0  0  0
 16 17  1  0  0  0
 17 18  1  0  0  0
 18 19  1  0  0  0
 18 25  1  0  0  0
 19 20  1  0  0  0
 20 21  1  0  0  0
 20 24  1  0  0  0
 21 22  1  0  0  0
 21 23  1  0  0  0
 23 51  1  0  0  0
 23 52  1  0  0  0
 24 53  1  0  0  0
 25 54  1  0  0  0
 26 55  1  0  0  0
 27 28  1  0  0  0
 28 29  2  0  0  0
 28 30  1  0  0  0
 30 31  1  0  0  0
 31 32  1  0  0  0
 31 36  1  0  0  0
 32 33  1  0  0  0
 33 34  2  0  0  0
 33 35  1  0  0  0
 35 56  1  0  0  0
 36 37  2  0  0  0
 36 38  1  0  0  0
 38 57  1  0  0  0
 39 40  1  0  0  0
 40 41  2  0  0  0
 40 42  1  0  0  0
 42 43  1  0  0  0
 43 44  1  0  0  0
 43 48  1  0  0  0
 44 45  1  0  0  0
 45 46  2  0  0  0
 45 47  1  0  0  0
 47 58  1  0  0  0
 48 49  2  0  0  0
 48 50  1  0  0  0
 50 59  1  0  0  0
M  END
>  <AUTHOR>
    GENERATED BY OPEN BABEL 2.4.1

>  <CHROM.1>
-178.50139864,-166.09125599,160.36569557,-66.93990323,-64.04799106,73.83706805
-159.76984275,151.60651276,40.15302929,-159.49653783,161.88590378,66.64118299
51.85969641,-149.57035477,-48.88606059,-101.16533737,-175.06553395,-82.48973386
173.64090427,-84.65624526,-95.26258678,152.52652071,-77.17526170,109.03402474
-126.93496995,173.03812911,-69.64578765,113.80304096,-79.84516596,9.18149706
-175.36353176,5.45098489,-99.05960835,148.24527525,-143.79911534,-114.50197413
-123.72326000,171.25525028,2.34505424,-3.85794325,1.47611590,-9.31938886
-2.80613200,-1.11888524,1.10945748

>  <COMPND>
    UNNAMED

>  <MASTER>
        0    0    0    0    0    0    0    0  109    0  109    0

>  <Name>
FB1.pdb

>  <RI>
0

>  <Rbt.Current_Directory>
/home/fc/tossine/FB1_39/p3/3_clust03

>  <Rbt.Executable>
rbdock/0.1.0

>  <Rbt.Library>
librxdock.so/0.1.0

>  <Rbt.Parameter_File>
/cluster/rxdock/data/scripts/dock.prm

>  <Rbt.Receptor>
rx_1.prm

>  <SCORE>
23.8973

>  <SCORE.INTER>
5.57235

>  <SCORE.INTER.CONST>
1

>  <SCORE.INTER.POLAR>
-2.73342

>  <SCORE.INTER.REPUL>
0.67273

>  <SCORE.INTER.ROT>
32

>  <SCORE.INTER.VDW>
-25.8977

>  <SCORE.INTER.norm>
0.111447

>  <SCORE.INTRA>
15.9349

>  <SCORE.INTRA.DIHEDRAL>
26.4032

>  <SCORE.INTRA.DIHEDRAL.0>
47.3121

>  <SCORE.INTRA.POLAR>
1.47107

>  <SCORE.INTRA.POLAR.0>
-1.47808

>  <SCORE.INTRA.REPUL>
0.0207629

>  <SCORE.INTRA.REPUL.0>
0

>  <SCORE.INTRA.VDW>
-2.37213

>  <SCORE.INTRA.VDW.0>
-2.78316

>  <SCORE.INTRA.norm>
0.318698

>  <SCORE.RESTR>
2.39007

>  <SCORE.RESTR.CAVITY>
2.39007

>  <SCORE.RESTR.norm>
0.0478015

>  <SCORE.SYSTEM>
0

>  <SCORE.SYSTEM.CONST>
0

>  <SCORE.SYSTEM.DIHEDRAL>
0

>  <SCORE.SYSTEM.norm>
0

>  <SCORE.heavy>
50

>  <SCORE.norm>
0.477946

$$$$
