FB1.pdb
  RxDock  10072015013D
librxdock.so/0.1.0
 59 58  0  0  0  0  0  0  0  0999 V2000
    0.1086    4.0162  -12.8740 C   0  0  0  0  0  0
   -0.2987    3.7874  -11.4204 C   0  0  0  0  0  0
   -0.1086    2.3206  -10.9999 C   0  0  0  0  0  0
   -1.1404    1.3568  -11.6373 C   0  0  0  0  0  0
   -2.6316    1.6183  -11.2267 C   0  0  0  0  0  0
   -3.3673    2.2369  -12.4378 C   0  0  0  0  0  0
   -3.3828    0.3201  -10.7089 C   0  0  0  0  0  0
   -2.7262   -0.4521   -9.4684 C   0  0  0  0  0  0
   -2.7549    0.0490   -7.9597 C   0  0  0  0  0  0
   -2.1133   -1.0015   -6.8614 C   0  0  0  0  0  0
   -1.7666   -0.2247   -5.5924 C   0  0  0  0  0  0
   -3.0137   -2.2638   -6.4867 C   0  0  0  0  0  0
   -2.4415   -3.6184   -5.8112 C   0  0  0  0  0  0
   -1.4216   -3.5979   -4.6214 C   0  0  0  0  0  0
   -1.9958   -3.5927   -3.1317 C   0  0  0  0  0  0
   -1.0993   -3.6683   -1.8335 C   0  0  0  0  0  0
   -1.7762   -3.7984   -0.4434 C   0  0  0  0  0  0
   -0.8228   -3.7509    0.8128 C   0  0  0  0  0  0
    0.5345   -4.4491    0.6623 C   0  0  0  0  0  0
    0.6347   -5.9550    1.0371 C   0  0  0  0  0  0
   -0.2287   -7.0152    0.2914 C   0  0  0  0  0  0
   -0.0824   -7.0644   -1.2231 C   0  0  0  0  0  0
   -0.0434   -8.3540    0.8828 N   0  0  0  0  0  0
    2.0085   -6.3162    0.7440 O   0  0  0  0  0  0
   -0.5933   -2.3765    1.1414 O   0  0  0  0  0  0
   -3.6021   -4.2946   -5.2989 O   0  0  0  0  0  0
   -3.3563   -1.7611   -9.4249 O   0  0  0  0  0  0
   -2.9098   -2.6904  -10.3094 C   0  0  0  0  0  0
   -2.0839   -2.5123  -11.1844 O   0  0  0  0  0  0
   -3.5333   -4.0145   -9.9640 C   0  0  0  0  0  0
   -4.2328   -4.6691  -11.1659 C   0  0  0  0  0  0
   -5.0226   -3.6596  -12.0089 C   0  0  0  0  0  0
   -5.6231   -4.3195  -13.2285 C   0  0  0  0  0  0
   -5.7506   -5.5330  -13.3495 O   0  0  0  0  0  0
   -6.0081   -3.4479  -14.1725 O   0  0  0  0  0  0
   -3.1174   -5.3001  -12.0108 C   0  0  0  0  0  0
   -2.1845   -4.6588  -12.4699 O   0  0  0  0  0  0
   -3.2762   -6.6097  -12.2471 O   0  0  0  0  0  0
   -4.8262    0.5861  -10.4951 O   0  0  0  0  0  0
   -5.7471   -0.1617  -11.2098 C   0  0  0  0  0  0
   -6.1920   -1.2447  -10.8526 O   0  0  0  0  0  0
   -6.1614    0.5199  -12.5205 C   0  0  0  0  0  0
   -7.2364    1.6431  -12.3896 C   0  0  0  0  0  0
   -7.5179    2.5221  -13.6218 C   0  0  0  0  0  0
   -8.3881    3.7058  -13.3116 C   0  0  0  0  0  0
   -9.5762    3.8090  -13.5842 O   0  0  0  0  0  0
   -7.7238    4.6754  -12.6643 O   0  0  0  0  0  0
   -8.5924    1.1686  -11.8525 C   0  0  0  0  0  0
   -8.9737    0.0185  -11.9459 O   0  0  0  0  0  0
   -9.2995    2.0917  -11.1676 O   0  0  0  0  0  0
    0.9480   -8.5895    0.8726 H   0  0  0  0  0  0
   -0.4846   -9.0450    0.2718 H   0  0  0  0  0  0
    2.1301   -6.0791   -0.1995 H   0  0  0  0  0  0
   -0.0412   -1.9842    0.4401 H   0  0  0  0  0  0
   -4.0480   -3.6967   -4.6759 H   0  0  0  0  0  0
   -5.8745   -2.5066  -13.9498 H   0  0  0  0  0  0
   -2.6247   -6.9931  -12.8853 H   0  0  0  0  0  0
   -6.8171    4.3376  -12.5057 H   0  0  0  0  0  0
  -10.1328    1.7652  -10.7610 H   0  0  0  0  0  0
  1  2  1  0  0  0
  2  3  1  0  0  0
  3  4  1  0  0  0
  4  5  1  0  0  0
  5  6  1  0  0  0
  5  7  1  0  0  0
  7  8  1  0  0  0
  7 39  1  0  0  0
  8  9  1  0  0  0
  8 27  1  0  0  0
  9 10  1  0  0  0
 10 11  1  0  0  0
 10 12  1  0  0  0
 12 13  1  0  0  0
 13 14  1  0  0  0
 13 26  1  0  0  0
 14 15  1  0  0  0
 15 16  1  0  0  0
 16 17  1  0  0  0
 17 18  1  0  0  0
 18 19  1  0  0  0
 18 25  1  0  0  0
 19 20  1  0  0  0
 20 21  1  0  0  0
 20 24  1  0  0  0
 21 22  1  0  0  0
 21 23  1  0  0  0
 23 51  1  0  0  0
 23 52  1  0  0  0
 24 53  1  0  0  0
 25 54  1  0  0  0
 26 55  1  0  0  0
 27 28  1  0  0  0
 28 29  2  0  0  0
 28 30  1  0  0  0
 30 31  1  0  0  0
 31 32  1  0  0  0
 31 36  1  0  0  0
 32 33  1  0  0  0
 33 34  2  0  0  0
 33 35  1  0  0  0
 35 56  1  0  0  0
 36 37  2  0  0  0
 36 38  1  0  0  0
 38 57  1  0  0  0
 39 40  1  0  0  0
 40 41  2  0  0  0
 40 42  1  0  0  0
 42 43  1  0  0  0
 43 44  1  0  0  0
 43 48  1  0  0  0
 44 45  1  0  0  0
 45 46  2  0  0  0
 45 47  1  0  0  0
 47 58  1  0  0  0
 48 49  2  0  0  0
 48 50  1  0  0  0
 50 59  1  0  0  0
M  END
>  <AUTHOR>
    GENERATED BY OPEN BABEL 2.4.1

>  <CHROM.1>
-71.63227464,-63.34344540,107.43449442,56.76032327,74.05197147,120.51036375
175.04516959,78.76223051,160.52989578,160.67489824,44.31945197,90.41060040
-57.83801407,175.80368260,-173.92802650,-175.21849688,-37.77203707,-89.39313062
-69.62879009,60.39035562,56.25533563,-56.11710617,-55.97295340,-4.31931746
127.18966046,-41.40263353,176.36658405,-57.96642748,17.01115620,-1.37915128
172.51022069,87.33524786,-80.38992416,169.83675794,-170.13465315,-24.01256459
-103.63308599,-3.16036391,-175.15028802,-3.44060872,-1.73900618,-8.42165481
-2.80892323,1.14561039,-3.03073402

>  <COMPND>
    UNNAMED

>  <MASTER>
        0    0    0    0    0    0    0    0  109    0  109    0

>  <Name>
FB1.pdb

>  <RI>
0

>  <Rbt.Current_Directory>
/home/fc/tossine/FB1_39/p3/3_clust03

>  <Rbt.Executable>
rbdock/0.1.0

>  <Rbt.Library>
librxdock.so/0.1.0

>  <Rbt.Parameter_File>
/cluster/rxdock/data/scripts/dock.prm

>  <Rbt.Receptor>
rx_0.prm

>  <SCORE>
43.2737

>  <SCORE.INTER>
26.1363

>  <SCORE.INTER.CONST>
1

>  <SCORE.INTER.POLAR>
-1.11355

>  <SCORE.INTER.REPUL>
0.0157598

>  <SCORE.INTER.ROT>
32

>  <SCORE.INTER.VDW>
-7.55641

>  <SCORE.INTER.norm>
0.522726

>  <SCORE.INTRA>
16.5133

>  <SCORE.INTRA.DIHEDRAL>
20.9666

>  <SCORE.INTRA.DIHEDRAL.0>
47.3121

>  <SCORE.INTRA.POLAR>
1.47808

>  <SCORE.INTRA.POLAR.0>
-1.47808

>  <SCORE.INTRA.REPUL>
0

>  <SCORE.INTRA.REPUL.0>
0

>  <SCORE.INTRA.VDW>
1.00451

>  <SCORE.INTRA.VDW.0>
-2.78316

>  <SCORE.INTRA.norm>
0.330266

>  <SCORE.RESTR>
0.624054

>  <SCORE.RESTR.CAVITY>
0.624054

>  <SCORE.RESTR.norm>
0.0124811

>  <SCORE.SYSTEM>
0

>  <SCORE.SYSTEM.CONST>
0

>  <SCORE.SYSTEM.DIHEDRAL>
0

>  <SCORE.SYSTEM.norm>
0

>  <SCORE.heavy>
50

>  <SCORE.norm>
0.865473

$$$$
