FB1.pdb
  RxDock  10072016023D
librxdock.so/0.1.0
 59 58  0  0  0  0  0  0  0  0999 V2000
   -8.9735    7.9105   -9.5499 C   0  0  0  0  0  0
   -8.5901    6.4926   -9.1328 C   0  0  0  0  0  0
   -7.0797    6.2448   -9.2792 C   0  0  0  0  0  0
   -6.6313    4.8496   -8.7773 C   0  0  0  0  0  0
   -6.6114    3.7273   -9.8730 C   0  0  0  0  0  0
   -7.9605    3.7616  -10.6275 C   0  0  0  0  0  0
   -5.3933    3.8494  -10.8825 C   0  0  0  0  0  0
   -5.1771    5.2701  -11.5904 C   0  0  0  0  0  0
   -4.5644    6.5584  -10.8883 C   0  0  0  0  0  0
   -2.9278    6.5314  -10.6826 C   0  0  0  0  0  0
   -2.4913    7.8697  -10.0889 C   0  0  0  0  0  0
   -2.3504    5.3385   -9.7947 C   0  0  0  0  0  0
   -0.7733    5.0647   -9.5574 C   0  0  0  0  0  0
    0.2045    4.7145  -10.7311 C   0  0  0  0  0  0
    1.4462    5.6823  -10.9968 C   0  0  0  0  0  0
    1.3719    7.0090  -11.8506 C   0  0  0  0  0  0
    0.0837    7.8730  -11.8106 C   0  0  0  0  0  0
    0.2123    9.3013  -11.1527 C   0  0  0  0  0  0
    1.5799    9.9847  -11.2745 C   0  0  0  0  0  0
    1.7528   11.4029  -10.6603 C   0  0  0  0  0  0
    1.2224   11.7158   -9.2299 C   0  0  0  0  0  0
   -0.2848   11.8736   -9.0857 C   0  0  0  0  0  0
    1.7470   10.7450   -8.2508 N   0  0  0  0  0  0
    3.1881   11.5959  -10.5791 O   0  0  0  0  0  0
   -0.7753   10.1513  -11.7460 O   0  0  0  0  0  0
   -0.2658    6.2882   -8.9988 O   0  0  0  0  0  0
   -4.3028    5.0293  -12.7262 O   0  0  0  0  0  0
   -4.7683    4.2029  -13.6987 C   0  0  0  0  0  0
   -5.8498    3.6465  -13.7131 O   0  0  0  0  0  0
   -3.7612    4.1665  -14.8148 C   0  0  0  0  0  0
   -2.3370    3.8748  -14.3155 C   0  0  0  0  0  0
   -1.6779    5.0994  -13.6679 C   0  0  0  0  0  0
   -0.1743    5.0472  -13.8083 C   0  0  0  0  0  0
    0.4965    5.9662  -14.2655 O   0  0  0  0  0  0
    0.3625    3.8945  -13.3815 O   0  0  0  0  0  0
   -2.4743    2.7456  -13.2849 C   0  0  0  0  0  0
   -3.3256    1.8728  -13.3614 O   0  0  0  0  0  0
   -1.6119    2.8225  -12.2621 O   0  0  0  0  0  0
   -4.1411    3.3364  -10.2752 O   0  0  0  0  0  0
   -3.9995    1.9683  -10.1134 C   0  0  0  0  0  0
   -4.8958    1.1511  -10.2783 O   0  0  0  0  0  0
   -2.5758    1.5737   -9.6989 C   0  0  0  0  0  0
   -2.3966    0.1043   -9.2056 C   0  0  0  0  0  0
   -2.1039   -0.9812  -10.2574 C   0  0  0  0  0  0
   -1.3542   -0.4572  -11.4481 C   0  0  0  0  0  0
   -1.8236   -0.2742  -12.5629 O   0  0  0  0  0  0
   -0.0727   -0.1775  -11.1653 O   0  0  0  0  0  0
   -1.3714   -0.0692   -8.0781 C   0  0  0  0  0  0
   -1.6877   -0.1919   -6.9112 O   0  0  0  0  0  0
   -0.0870   -0.1854   -8.4758 O   0  0  0  0  0  0
    2.7550   10.6586   -8.3732 H   0  0  0  0  0  0
    1.3741    9.8199   -8.4761 H   0  0  0  0  0  0
    3.3051   12.5691  -10.5548 H   0  0  0  0  0  0
   -0.4983   10.3477  -12.6599 H   0  0  0  0  0  0
   -0.1549    6.1587   -8.0420 H   0  0  0  0  0  0
    1.3353    3.8942  -13.2968 H   0  0  0  0  0  0
   -1.5022    1.9807  -11.7541 H   0  0  0  0  0  0
    0.3869   -0.0654  -12.0241 H   0  0  0  0  0  0
    0.0953    0.1068   -9.3964 H   0  0  0  0  0  0
  1  2  1  0  0  0
  2  3  1  0  0  0
  3  4  1  0  0  0
  4  5  1  0  0  0
  5  6  1  0  0  0
  5  7  1  0  0  0
  7  8  1  0  0  0
  7 39  1  0  0  0
  8  9  1  0  0  0
  8 27  1  0  0  0
  9 10  1  0  0  0
 10 11  1  0  0  0
 10 12  1  0  0  0
 12 13  1  0  0  0
 13 14  1  0  0  0
 13 26  1  0  0  0
 14 15  1  0  0  0
 15 16  1  0  0  0
 16 17  1  0  0  0
 17 18  1  0  0  0
 18 19  1  0  0  0
 18 25  1  0  0  0
 19 20  1  0  0  0
 20 21  1  0  0  0
 20 24  1  0  0  0
 21 22  1  0  0  0
 21 23  1  0  0  0
 23 51  1  0  0  0
 23 52  1  0  0  0
 24 53  1  0  0  0
 25 54  1  0  0  0
 26 55  1  0  0  0
 27 28  1  0  0  0
 28 29  2  0  0  0
 28 30  1  0  0  0
 30 31  1  0  0  0
 31 32  1  0  0  0
 31 36  1  0  0  0
 32 33  1  0  0  0
 33 34  2  0  0  0
 33 35  1  0  0  0
 35 56  1  0  0  0
 36 37  2  0  0  0
 36 38  1  0  0  0
 38 57  1  0  0  0
 39 40  1  0  0  0
 40 41  2  0  0  0
 40 42  1  0  0  0
 42 43  1  0  0  0
 43 44  1  0  0  0
 43 48  1  0  0  0
 44 45  1  0  0  0
 45 46  2  0  0  0
 45 47  1  0  0  0
 47 58  1  0  0  0
 48 49  2  0  0  0
 48 50  1  0  0  0
 50 59  1  0  0  0
M  END
>  <AUTHOR>
    GENERATED BY OPEN BABEL 2.4.1

>  <CHROM.1>
176.12490920,91.79850851,-49.14850796,-51.85324759,75.42612260,72.72143956
75.95512764,62.39527531,176.14375435,175.38172127,-62.32793386,120.45796570
102.47441959,-83.75791261,34.94271355,113.53997697,30.30270612,179.14039869
-71.84622539,45.87093737,-74.64394021,157.41687254,48.84249059,0.21952138
50.57783814,-76.96742848,-151.92610758,32.36623809,127.80891549,-168.64293524
-162.31495814,-9.64095749,167.64504535,87.78328739,29.73769870,100.79045498
-106.80654426,166.00212538,16.90668844,-2.22936119,4.92836479,-10.97246806
2.06133113,-0.07745159,-3.08257575

>  <COMPND>
    UNNAMED

>  <MASTER>
        0    0    0    0    0    0    0    0  109    0  109    0

>  <Name>
FB1.pdb

>  <RI>
0

>  <Rbt.Current_Directory>
/home/fc/tossine/FB1_39/p3/3_clust03

>  <Rbt.Executable>
rbdock/0.1.0

>  <Rbt.Library>
librxdock.so/0.1.0

>  <Rbt.Parameter_File>
/cluster/rxdock/data/scripts/dock.prm

>  <Rbt.Receptor>
rx_1.prm

>  <SCORE>
18.4451

>  <SCORE.INTER>
5.60437

>  <SCORE.INTER.CONST>
1

>  <SCORE.INTER.POLAR>
-3.15921

>  <SCORE.INTER.REPUL>
0.762517

>  <SCORE.INTER.ROT>
32

>  <SCORE.INTER.VDW>
-24.8669

>  <SCORE.INTER.norm>
0.112087

>  <SCORE.INTRA>
9.61873

>  <SCORE.INTRA.DIHEDRAL>
13.7818

>  <SCORE.INTRA.DIHEDRAL.0>
47.3121

>  <SCORE.INTRA.POLAR>
0.49374

>  <SCORE.INTRA.POLAR.0>
-1.47808

>  <SCORE.INTRA.REPUL>
0.12961

>  <SCORE.INTRA.REPUL.0>
0

>  <SCORE.INTRA.VDW>
0.40106

>  <SCORE.INTRA.VDW.0>
-2.78316

>  <SCORE.INTRA.norm>
0.192375

>  <SCORE.RESTR>
3.22197

>  <SCORE.RESTR.CAVITY>
3.22197

>  <SCORE.RESTR.norm>
0.0644394

>  <SCORE.SYSTEM>
0

>  <SCORE.SYSTEM.CONST>
0

>  <SCORE.SYSTEM.DIHEDRAL>
0

>  <SCORE.SYSTEM.norm>
0

>  <SCORE.heavy>
50

>  <SCORE.norm>
0.368901

$$$$
