FB1.pdb
  RxDock  10072015063D
librxdock.so/0.1.0
 59 58  0  0  0  0  0  0  0  0999 V2000
   -0.7273    0.3742   -8.7368 C   0  0  0  0  0  0
   -1.8260   -0.6836   -8.6647 C   0  0  0  0  0  0
   -3.2004   -0.0581   -8.3747 C   0  0  0  0  0  0
   -4.3857   -0.8880   -8.9280 C   0  0  0  0  0  0
   -5.1814   -0.2076  -10.0961 C   0  0  0  0  0  0
   -6.3696    0.5707   -9.4854 C   0  0  0  0  0  0
   -4.2883    0.7400  -11.0029 C   0  0  0  0  0  0
   -3.9813    2.2070  -10.4373 C   0  0  0  0  0  0
   -2.5336    2.7767  -10.1090 C   0  0  0  0  0  0
   -1.3926    2.4968  -11.2671 C   0  0  0  0  0  0
   -1.9885    2.8466  -12.6297 C   0  0  0  0  0  0
   -0.0014    3.2548  -11.0812 C   0  0  0  0  0  0
    0.1763    4.8607  -11.1711 C   0  0  0  0  0  0
   -0.2001    5.6771  -12.4548 C   0  0  0  0  0  0
   -0.0896    7.2689  -12.3995 C   0  0  0  0  0  0
    1.2066    8.0548  -11.9558 C   0  0  0  0  0  0
    1.4132    8.4054  -10.4585 C   0  0  0  0  0  0
    0.2776    9.2575   -9.7703 C   0  0  0  0  0  0
   -0.2135   10.4868  -10.5450 C   0  0  0  0  0  0
   -1.5330   11.1693  -10.0854 C   0  0  0  0  0  0
   -2.9130   10.5286  -10.4181 C   0  0  0  0  0  0
   -3.0414    9.8674  -11.7833 C   0  0  0  0  0  0
   -3.3382    9.6098   -9.3451 N   0  0  0  0  0  0
   -1.4600   11.1724   -8.6368 O   0  0  0  0  0  0
   -0.8393    8.3942   -9.5317 O   0  0  0  0  0  0
   -0.6680    5.3847  -10.1322 O   0  0  0  0  0  0
   -4.5226    3.1397  -11.4117 O   0  0  0  0  0  0
   -4.8328    4.3853  -10.9672 C   0  0  0  0  0  0
   -4.8173    4.7610   -9.8105 O   0  0  0  0  0  0
   -5.1037    5.2621  -12.1586 C   0  0  0  0  0  0
   -6.3706    6.1153  -11.9878 C   0  0  0  0  0  0
   -7.6215    5.2662  -11.7273 C   0  0  0  0  0  0
   -7.7868    4.2003  -12.7855 C   0  0  0  0  0  0
   -8.3725    4.3835  -13.8471 O   0  0  0  0  0  0
   -7.2278    3.0270  -12.4539 O   0  0  0  0  0  0
   -6.1012    7.0352  -10.7890 C   0  0  0  0  0  0
   -5.5868    8.1380  -10.8969 O   0  0  0  0  0  0
   -6.4323    6.5083   -9.6021 O   0  0  0  0  0  0
   -3.0541    0.0480  -11.4476 O   0  0  0  0  0  0
   -2.9757   -0.3797  -12.7625 C   0  0  0  0  0  0
   -3.7474   -0.0436  -13.6513 O   0  0  0  0  0  0
   -1.7990   -1.3364  -12.9960 C   0  0  0  0  0  0
   -1.4963   -2.3339  -11.8351 C   0  0  0  0  0  0
   -2.6596   -2.7480  -10.9155 C   0  0  0  0  0  0
   -3.9196   -3.0627  -11.6690 C   0  0  0  0  0  0
   -4.8008   -2.2625  -11.9515 O   0  0  0  0  0  0
   -3.9889   -4.3509  -12.0378 O   0  0  0  0  0  0
   -0.7824   -3.6200  -12.2694 C   0  0  0  0  0  0
    0.4146   -3.7861  -12.1417 O   0  0  0  0  0  0
   -1.5878   -4.6095  -12.7094 O   0  0  0  0  0  0
   -2.6768    8.8368   -9.2856 H   0  0  0  0  0  0
   -4.2243    9.1781   -9.6168 H   0  0  0  0  0  0
   -0.6543   11.6920   -8.4315 H   0  0  0  0  0  0
   -0.9841    8.3431   -8.5690 H   0  0  0  0  0  0
   -0.4652    6.3294  -10.0278 H   0  0  0  0  0  0
   -7.3746    2.3010  -13.0902 H   0  0  0  0  0  0
   -7.1729    5.8532   -9.6366 H   0  0  0  0  0  0
   -3.0776   -4.7086  -11.9832 H   0  0  0  0  0  0
   -1.1521   -5.4821  -12.8318 H   0  0  0  0  0  0
  1  2  1  0  0  0
  2  3  1  0  0  0
  3  4  1  0  0  0
  4  5  1  0  0  0
  5  6  1  0  0  0
  5  7  1  0  0  0
  7  8  1  0  0  0
  7 39  1  0  0  0
  8  9  1  0  0  0
  8 27  1  0  0  0
  9 10  1  0  0  0
 10 11  1  0  0  0
 10 12  1  0  0  0
 12 13  1  0  0  0
 13 14  1  0  0  0
 13 26  1  0  0  0
 14 15  1  0  0  0
 15 16  1  0  0  0
 16 17  1  0  0  0
 17 18  1  0  0  0
 18 19  1  0  0  0
 18 25  1  0  0  0
 19 20  1  0  0  0
 20 21  1  0  0  0
 20 24  1  0  0  0
 21 22  1  0  0  0
 21 23  1  0  0  0
 23 51  1  0  0  0
 23 52  1  0  0  0
 24 53  1  0  0  0
 25 54  1  0  0  0
 26 55  1  0  0  0
 27 28  1  0  0  0
 28 29  2  0  0  0
 28 30  1  0  0  0
 30 31  1  0  0  0
 31 32  1  0  0  0
 31 36  1  0  0  0
 32 33  1  0  0  0
 33 34  2  0  0  0
 33 35  1  0  0  0
 35 56  1  0  0  0
 36 37  2  0  0  0
 36 38  1  0  0  0
 38 57  1  0  0  0
 39 40  1  0  0  0
 40 41  2  0  0  0
 40 42  1  0  0  0
 42 43  1  0  0  0
 43 44  1  0  0  0
 43 48  1  0  0  0
 44 45  1  0  0  0
 45 46  2  0  0  0
 45 47  1  0  0  0
 47 58  1  0  0  0
 48 49  2  0  0  0
 48 50  1  0  0  0
 50 59  1  0  0  0
M  END
>  <AUTHOR>
    GENERATED BY OPEN BABEL 2.4.1

>  <CHROM.1>
152.73219438,-112.72826135,-92.98484269,-79.87495886,118.49191041,105.42711025
45.97421179,156.50675054,46.43793889,-66.13437471,-59.17917134,175.45118530
168.99833056,53.30112949,-89.25803108,-57.36223721,-46.98606640,166.23016612
117.20108010,-76.34568542,-37.69777816,60.10615677,-63.62400470,-7.19499182
134.33479955,-57.53042344,-53.05274604,89.58586178,-87.06322891,175.76350101
-28.78819479,12.67901376,37.24864721,27.30428792,43.87878562,99.86485918
-90.19428143,-18.12570984,-169.36250553,-3.05850107,3.35153202,-11.07689762
-1.63471672,-0.09661224,0.08809674

>  <COMPND>
    UNNAMED

>  <MASTER>
        0    0    0    0    0    0    0    0  109    0  109    0

>  <Name>
FB1.pdb

>  <RI>
0

>  <Rbt.Current_Directory>
/home/fc/tossine/FB1_39/p3/3_clust03

>  <Rbt.Executable>
rbdock/0.1.0

>  <Rbt.Library>
librxdock.so/0.1.0

>  <Rbt.Parameter_File>
/cluster/rxdock/data/scripts/dock.prm

>  <Rbt.Receptor>
rx_0.prm

>  <SCORE>
24.1552

>  <SCORE.INTER>
15.9272

>  <SCORE.INTER.CONST>
1

>  <SCORE.INTER.POLAR>
-0.92989

>  <SCORE.INTER.REPUL>
0.881221

>  <SCORE.INTER.ROT>
32

>  <SCORE.INTER.VDW>
-22.7173

>  <SCORE.INTER.norm>
0.318543

>  <SCORE.INTRA>
7.72022

>  <SCORE.INTRA.DIHEDRAL>
22.3268

>  <SCORE.INTRA.DIHEDRAL.0>
47.3121

>  <SCORE.INTRA.POLAR>
-1.96659

>  <SCORE.INTRA.POLAR.0>
-1.47808

>  <SCORE.INTRA.REPUL>
0.00174686

>  <SCORE.INTRA.REPUL.0>
0

>  <SCORE.INTRA.VDW>
3.2345

>  <SCORE.INTRA.VDW.0>
-2.78316

>  <SCORE.INTRA.norm>
0.154404

>  <SCORE.RESTR>
0.507786

>  <SCORE.RESTR.CAVITY>
0.507786

>  <SCORE.RESTR.norm>
0.0101557

>  <SCORE.SYSTEM>
0

>  <SCORE.SYSTEM.CONST>
0

>  <SCORE.SYSTEM.DIHEDRAL>
0

>  <SCORE.SYSTEM.norm>
0

>  <SCORE.heavy>
50

>  <SCORE.norm>
0.483103

$$$$
