FB1.pdb
  RxDock  10072018283D
librxdock.so/0.1.0
 59 58  0  0  0  0  0  0  0  0999 V2000
    3.7506    6.0291  -15.1485 C   0  0  0  0  0  0
    3.6482    6.7865  -13.8267 C   0  0  0  0  0  0
    2.9088    5.9667  -12.7565 C   0  0  0  0  0  0
    1.3973    5.7920  -13.0473 C   0  0  0  0  0  0
    0.5569    7.1155  -12.9984 C   0  0  0  0  0  0
    0.8127    7.9016  -14.3051 C   0  0  0  0  0  0
   -0.9954    6.8721  -12.7772 C   0  0  0  0  0  0
   -1.4412    5.4046  -12.3149 C   0  0  0  0  0  0
   -0.8432    4.6161  -11.0704 C   0  0  0  0  0  0
   -0.6417    2.9951  -11.3005 C   0  0  0  0  0  0
   -0.1034    2.3848  -10.0075 C   0  0  0  0  0  0
   -1.9319    2.1868  -11.7769 C   0  0  0  0  0  0
   -1.8837    0.7185  -12.4555 C   0  0  0  0  0  0
   -3.1789   -0.0479  -12.8926 C   0  0  0  0  0  0
   -4.5857    0.4646  -12.3380 C   0  0  0  0  0  0
   -5.0283    0.3799  -10.8243 C   0  0  0  0  0  0
   -4.1378    1.0255   -9.7300 C   0  0  0  0  0  0
   -3.2885    0.0388   -8.8387 C   0  0  0  0  0  0
   -2.3082   -0.8763   -9.5831 C   0  0  0  0  0  0
   -2.7863   -2.3021   -9.9790 C   0  0  0  0  0  0
   -1.8202   -3.2895  -10.6981 C   0  0  0  0  0  0
   -1.2235   -2.8146  -12.0157 C   0  0  0  0  0  0
   -0.7647   -3.7552   -9.7787 N   0  0  0  0  0  0
   -3.1101   -2.9442   -8.7194 O   0  0  0  0  0  0
   -2.5515    0.8212   -7.8930 O   0  0  0  0  0  0
   -1.1260    0.8948  -13.6644 O   0  0  0  0  0  0
   -2.8668    5.4801  -12.0418 O   0  0  0  0  0  0
   -3.6793    4.6787  -12.7786 C   0  0  0  0  0  0
   -3.6465    4.5361  -13.9861 O   0  0  0  0  0  0
   -4.5690    3.9111  -11.8401 C   0  0  0  0  0  0
   -5.9282    4.5952  -11.6233 C   0  0  0  0  0  0
   -5.7915    5.9962  -11.0136 C   0  0  0  0  0  0
   -6.9964    6.3438  -10.1705 C   0  0  0  0  0  0
   -7.0264    6.2279   -8.9501 O   0  0  0  0  0  0
   -8.0369    6.7957  -10.8860 O   0  0  0  0  0  0
   -6.5802    4.6870  -13.0099 C   0  0  0  0  0  0
   -6.3327    3.9062  -13.9162 O   0  0  0  0  0  0
   -7.4104    5.7278  -13.1628 O   0  0  0  0  0  0
   -1.5856    7.9271  -11.9178 O   0  0  0  0  0  0
   -1.4945    9.2446  -12.3351 C   0  0  0  0  0  0
   -1.2410    9.5965  -13.4798 O   0  0  0  0  0  0
   -1.7496   10.2376  -11.1935 C   0  0  0  0  0  0
   -2.7394    9.7577  -10.0869 C   0  0  0  0  0  0
   -2.1721    8.9323   -8.9176 C   0  0  0  0  0  0
   -1.2879    7.8060   -9.3693 C   0  0  0  0  0  0
   -0.1205    7.9115   -9.7192 O   0  0  0  0  0  0
   -1.9122    6.6187   -9.3365 O   0  0  0  0  0  0
   -3.6039   10.8692   -9.4792 C   0  0  0  0  0  0
   -4.7689   11.0389   -9.7805 O   0  0  0  0  0  0
   -3.0176   11.5894   -8.5000 O   0  0  0  0  0  0
   -0.1049   -2.9959   -9.6155 H   0  0  0  0  0  0
   -0.2194   -4.4815  -10.2485 H   0  0  0  0  0  0
   -2.2406   -3.1732   -8.3285 H   0  0  0  0  0  0
   -1.9243    1.3823   -8.3854 H   0  0  0  0  0  0
   -0.8719    0.0155  -13.9910 H   0  0  0  0  0  0
   -7.8967    6.8256  -11.8519 H   0  0  0  0  0  0
   -7.7234    5.8698  -14.0905 H   0  0  0  0  0  0
   -2.8231    6.7886   -9.0159 H   0  0  0  0  0  0
   -3.5878   12.2728   -8.0827 H   0  0  0  0  0  0
  1  2  1  0  0  0
  2  3  1  0  0  0
  3  4  1  0  0  0
  4  5  1  0  0  0
  5  6  1  0  0  0
  5  7  1  0  0  0
  7  8  1  0  0  0
  7 39  1  0  0  0
  8  9  1  0  0  0
  8 27  1  0  0  0
  9 10  1  0  0  0
 10 11  1  0  0  0
 10 12  1  0  0  0
 12 13  1  0  0  0
 13 14  1  0  0  0
 13 26  1  0  0  0
 14 15  1  0  0  0
 15 16  1  0  0  0
 16 17  1  0  0  0
 17 18  1  0  0  0
 18 19  1  0  0  0
 18 25  1  0  0  0
 19 20  1  0  0  0
 20 21  1  0  0  0
 20 24  1  0  0  0
 21 22  1  0  0  0
 21 23  1  0  0  0
 23 51  1  0  0  0
 23 52  1  0  0  0
 24 53  1  0  0  0
 25 54  1  0  0  0
 26 55  1  0  0  0
 27 28  1  0  0  0
 28 29  2  0  0  0
 28 30  1  0  0  0
 30 31  1  0  0  0
 31 32  1  0  0  0
 31 36  1  0  0  0
 32 33  1  0  0  0
 33 34  2  0  0  0
 33 35  1  0  0  0
 35 56  1  0  0  0
 36 37  2  0  0  0
 36 38  1  0  0  0
 38 57  1  0  0  0
 39 40  1  0  0  0
 40 41  2  0  0  0
 40 42  1  0  0  0
 42 43  1  0  0  0
 43 44  1  0  0  0
 43 48  1  0  0  0
 44 45  1  0  0  0
 45 46  2  0  0  0
 45 47  1  0  0  0
 47 58  1  0  0  0
 48 49  2  0  0  0
 48 50  1  0  0  0
 50 59  1  0  0  0
M  END
>  <AUTHOR>
    GENERATED BY OPEN BABEL 2.4.1

>  <CHROM.1>
-69.33463991,-65.96432568,77.07937226,13.24737951,52.54401770,58.86740898
-141.78984800,119.67409627,-178.31230146,161.94137894,179.20455367,-15.12321236
165.61219868,-67.68513424,55.78750765,-105.17453827,58.26301869,-93.92748540
-64.06783243,-178.16402292,-57.68566432,-76.17024580,-72.77130450,-47.25285322
94.47395187,-60.62515382,-150.25085919,26.92212503,97.95261980,1.26890615
171.10660551,17.34951723,-31.12697939,86.60490718,-48.37738668,102.35964595
79.23048323,0.10479828,-177.21336337,-2.52157697,4.52615930,-11.35240755
-1.53573152,-0.28217001,3.10073374

>  <COMPND>
    UNNAMED

>  <MASTER>
        0    0    0    0    0    0    0    0  109    0  109    0

>  <Name>
FB1.pdb

>  <RI>
0

>  <Rbt.Current_Directory>
/home/fc/tossine/FB1_39/p3/3_clust03

>  <Rbt.Executable>
rbdock/0.1.0

>  <Rbt.Library>
librxdock.so/0.1.0

>  <Rbt.Parameter_File>
/cluster/rxdock/data/scripts/dock.prm

>  <Rbt.Receptor>
rx_4.prm

>  <SCORE>
15.4629

>  <SCORE.INTER>
1.80039

>  <SCORE.INTER.CONST>
1

>  <SCORE.INTER.POLAR>
-2.80136

>  <SCORE.INTER.REPUL>
0.0252247

>  <SCORE.INTER.ROT>
32

>  <SCORE.INTER.VDW>
-26.2011

>  <SCORE.INTER.norm>
0.0360078

>  <SCORE.INTRA>
13.0077

>  <SCORE.INTRA.DIHEDRAL>
21.9961

>  <SCORE.INTRA.DIHEDRAL.0>
47.3121

>  <SCORE.INTRA.POLAR>
0.431015

>  <SCORE.INTRA.POLAR.0>
-1.47808

>  <SCORE.INTRA.REPUL>
0

>  <SCORE.INTRA.REPUL.0>
0

>  <SCORE.INTRA.VDW>
0.544195

>  <SCORE.INTRA.VDW.0>
-2.78316

>  <SCORE.INTRA.norm>
0.260154

>  <SCORE.RESTR>
0.654772

>  <SCORE.RESTR.CAVITY>
0.654772

>  <SCORE.RESTR.norm>
0.0130954

>  <SCORE.SYSTEM>
0

>  <SCORE.SYSTEM.CONST>
0

>  <SCORE.SYSTEM.DIHEDRAL>
0

>  <SCORE.SYSTEM.norm>
0

>  <SCORE.heavy>
50

>  <SCORE.norm>
0.309257

$$$$
