FB1.pdb
  RxDock  10072016063D
librxdock.so/0.1.0
 59 58  0  0  0  0  0  0  0  0999 V2000
    1.0096   11.7270   -9.2396 C   0  0  0  0  0  0
   -0.4414   11.6700   -9.7114 C   0  0  0  0  0  0
   -0.9341   10.2215   -9.8638 C   0  0  0  0  0  0
   -0.2157    9.4403  -10.9922 C   0  0  0  0  0  0
   -0.8625    9.5870  -12.4137 C   0  0  0  0  0  0
   -0.4089   10.9365  -13.0167 C   0  0  0  0  0  0
   -0.5211    8.3851  -13.3918 C   0  0  0  0  0  0
    1.0135    7.9335  -13.4786 C   0  0  0  0  0  0
    1.7355    6.9459  -12.4629 C   0  0  0  0  0  0
    0.7638    5.7869  -11.8041 C   0  0  0  0  0  0
    1.6173    4.5590  -11.4909 C   0  0  0  0  0  0
   -0.0573    6.2133  -10.5046 C   0  0  0  0  0  0
   -1.0782    5.2369   -9.7153 C   0  0  0  0  0  0
   -2.0049    4.2136  -10.4571 C   0  0  0  0  0  0
   -1.3208    3.0031  -11.2419 C   0  0  0  0  0  0
   -2.1192    1.8365  -11.9462 C   0  0  0  0  0  0
   -1.3753    0.5360  -12.3498 C   0  0  0  0  0  0
   -2.2736   -0.6773  -12.8084 C   0  0  0  0  0  0
   -3.4140   -1.0739  -11.8626 C   0  0  0  0  0  0
   -4.4019    0.0320  -11.3943 C   0  0  0  0  0  0
   -5.5270    0.5415  -12.3429 C   0  0  0  0  0  0
   -6.8600   -0.1898  -12.2670 C   0  0  0  0  0  0
   -5.7155    1.9977  -12.1999 N   0  0  0  0  0  0
   -5.0992   -0.5524  -10.2647 O   0  0  0  0  0  0
   -2.8336   -0.3541  -14.0858 O   0  0  0  0  0  0
   -0.2405    4.4362   -8.8646 O   0  0  0  0  0  0
    1.1776    7.2988  -14.7757 O   0  0  0  0  0  0
    2.3393    7.5390  -15.4374 C   0  0  0  0  0  0
    2.5310    8.4142  -16.2600 O   0  0  0  0  0  0
    3.3904    6.6022  -14.9092 C   0  0  0  0  0  0
    4.8051    6.9768  -15.3792 C   0  0  0  0  0  0
    5.3440    8.2322  -14.6813 C   0  0  0  0  0  0
    6.7849    8.0482  -14.2648 C   0  0  0  0  0  0
    7.7268    8.0778  -15.0493 O   0  0  0  0  0  0
    6.9391    7.8497  -12.9473 O   0  0  0  0  0  0
    5.6932    5.7695  -15.0479 C   0  0  0  0  0  0
    5.7110    5.2362  -13.9490 O   0  0  0  0  0  0
    6.4884    5.3759  -16.0522 O   0  0  0  0  0  0
   -1.4257    7.2327  -13.1602 O   0  0  0  0  0  0
   -2.7850    7.4738  -13.0492 C   0  0  0  0  0  0
   -3.3032    8.5810  -13.1119 O   0  0  0  0  0  0
   -3.5909    6.1857  -12.8361 C   0  0  0  0  0  0
   -5.1276    6.3726  -12.6409 C   0  0  0  0  0  0
   -5.9260    5.2072  -12.0286 C   0  0  0  0  0  0
   -7.3370    5.1321  -12.5363 C   0  0  0  0  0  0
   -7.9323    6.0247  -13.1241 O   0  0  0  0  0  0
   -7.9066    3.9415  -12.2948 O   0  0  0  0  0  0
   -5.5237    7.6430  -11.8783 C   0  0  0  0  0  0
   -4.9254    8.0376  -10.8970 O   0  0  0  0  0  0
   -6.5225    8.3628  -12.4310 O   0  0  0  0  0  0
   -6.7123    2.2013  -12.1409 H   0  0  0  0  0  0
   -5.4041    2.4535  -13.0605 H   0  0  0  0  0  0
   -5.6448    0.1792   -9.9063 H   0  0  0  0  0  0
   -3.2473   -1.1588  -14.4489 H   0  0  0  0  0  0
    0.1017    5.0068   -8.1563 H   0  0  0  0  0  0
    7.8446    7.6191  -12.6639 H   0  0  0  0  0  0
    6.4162    5.9251  -16.8719 H   0  0  0  0  0  0
   -8.7954    3.9658  -12.7082 H   0  0  0  0  0  0
   -6.3630    9.3313  -12.4827 H   0  0  0  0  0  0
  1  2  1  0  0  0
  2  3  1  0  0  0
  3  4  1  0  0  0
  4  5  1  0  0  0
  5  6  1  0  0  0
  5  7  1  0  0  0
  7  8  1  0  0  0
  7 39  1  0  0  0
  8  9  1  0  0  0
  8 27  1  0  0  0
  9 10  1  0  0  0
 10 11  1  0  0  0
 10 12  1  0  0  0
 12 13  1  0  0  0
 13 14  1  0  0  0
 13 26  1  0  0  0
 14 15  1  0  0  0
 15 16  1  0  0  0
 16 17  1  0  0  0
 17 18  1  0  0  0
 18 19  1  0  0  0
 18 25  1  0  0  0
 19 20  1  0  0  0
 20 21  1  0  0  0
 20 24  1  0  0  0
 21 22  1  0  0  0
 21 23  1  0  0  0
 23 51  1  0  0  0
 23 52  1  0  0  0
 24 53  1  0  0  0
 25 54  1  0  0  0
 26 55  1  0  0  0
 27 28  1  0  0  0
 28 29  2  0  0  0
 28 30  1  0  0  0
 30 31  1  0  0  0
 31 32  1  0  0  0
 31 36  1  0  0  0
 32 33  1  0  0  0
 33 34  2  0  0  0
 33 35  1  0  0  0
 35 56  1  0  0  0
 36 37  2  0  0  0
 36 38  1  0  0  0
 38 57  1  0  0  0
 39 40  1  0  0  0
 40 41  2  0  0  0
 40 42  1  0  0  0
 42 43  1  0  0  0
 43 44  1  0  0  0
 43 48  1  0  0  0
 44 45  1  0  0  0
 45 46  2  0  0  0
 45 47  1  0  0  0
 47 58  1  0  0  0
 48 49  2  0  0  0
 48 50  1  0  0  0
 50 59  1  0  0  0
M  END
>  <AUTHOR>
    GENERATED BY OPEN BABEL 2.4.1

>  <CHROM.1>
-66.15230148,-87.63876308,79.79856866,-47.42333494,83.20638221,46.53183948
31.45659413,141.43231807,150.73572676,179.24866757,-37.23757419,65.60615763
70.91808791,175.34615144,-163.99324531,169.42767515,-51.58979868,52.29301138
169.38917236,77.51218612,90.25666605,173.62690953,-134.61185868,-93.07621420
-168.29562713,72.82269618,136.54703313,-49.97479658,75.01001602,172.81343701
1.26067660,-0.95110270,177.54379296,-162.66294368,-148.61329459,-41.60754152
-15.96146733,-176.45599586,-133.75419903,-0.91556986,5.73799974,-12.57641993
0.45684705,0.24326125,0.09194102

>  <COMPND>
    UNNAMED

>  <MASTER>
        0    0    0    0    0    0    0    0  109    0  109    0

>  <Name>
FB1.pdb

>  <RI>
0

>  <Rbt.Current_Directory>
/home/fc/tossine/FB1_39/p3/3_clust03

>  <Rbt.Executable>
rbdock/0.1.0

>  <Rbt.Library>
librxdock.so/0.1.0

>  <Rbt.Parameter_File>
/cluster/rxdock/data/scripts/dock.prm

>  <Rbt.Receptor>
rx_1.prm

>  <SCORE>
26.0984

>  <SCORE.INTER>
2.80736

>  <SCORE.INTER.CONST>
1

>  <SCORE.INTER.POLAR>
-2.96042

>  <SCORE.INTER.REPUL>
0.255209

>  <SCORE.INTER.ROT>
32

>  <SCORE.INTER.VDW>
-25.8033

>  <SCORE.INTER.norm>
0.0561473

>  <SCORE.INTRA>
21.5551

>  <SCORE.INTRA.DIHEDRAL>
38.8235

>  <SCORE.INTRA.DIHEDRAL.0>
47.3121

>  <SCORE.INTRA.POLAR>
0.770017

>  <SCORE.INTRA.POLAR.0>
-1.47808

>  <SCORE.INTRA.REPUL>
0

>  <SCORE.INTRA.REPUL.0>
0

>  <SCORE.INTRA.VDW>
-0.474742

>  <SCORE.INTRA.VDW.0>
-2.78316

>  <SCORE.INTRA.norm>
0.431102

>  <SCORE.RESTR>
1.73597

>  <SCORE.RESTR.CAVITY>
1.73597

>  <SCORE.RESTR.norm>
0.0347194

>  <SCORE.SYSTEM>
0

>  <SCORE.SYSTEM.CONST>
0

>  <SCORE.SYSTEM.DIHEDRAL>
0

>  <SCORE.SYSTEM.norm>
0

>  <SCORE.heavy>
50

>  <SCORE.norm>
0.521968

$$$$
