FB1.pdb
  RxDock  10072017443D
librxdock.so/0.1.0
 59 58  0  0  0  0  0  0  0  0999 V2000
    0.4760   12.8180  -10.9167 C   0  0  0  0  0  0
   -0.8929   13.4891  -10.8317 C   0  0  0  0  0  0
   -1.8491   12.7170   -9.9076 C   0  0  0  0  0  0
   -2.3449   11.3792  -10.5110 C   0  0  0  0  0  0
   -3.3590   10.5852   -9.6156 C   0  0  0  0  0  0
   -4.7346   11.2860   -9.7015 C   0  0  0  0  0  0
   -3.4786    9.0509  -10.0023 C   0  0  0  0  0  0
   -4.1139    8.7105  -11.4329 C   0  0  0  0  0  0
   -3.6099    7.5597  -12.4075 C   0  0  0  0  0  0
   -2.9807    6.2326  -11.6562 C   0  0  0  0  0  0
   -4.0853    5.5719  -10.8331 C   0  0  0  0  0  0
   -2.2972    5.1463  -12.6036 C   0  0  0  0  0  0
   -1.1742    4.0904  -12.1110 C   0  0  0  0  0  0
   -1.5406    2.6672  -11.5666 C   0  0  0  0  0  0
   -2.1871    2.5565  -10.1109 C   0  0  0  0  0  0
   -3.4875    1.7247   -9.7771 C   0  0  0  0  0  0
   -4.8517    2.1684  -10.3682 C   0  0  0  0  0  0
   -6.1129    1.3190   -9.9473 C   0  0  0  0  0  0
   -7.4821    1.9488  -10.2321 C   0  0  0  0  0  0
   -7.7095    2.6252  -11.6137 C   0  0  0  0  0  0
   -7.9887    1.7633  -12.8804 C   0  0  0  0  0  0
   -8.2733    2.5237  -14.1681 C   0  0  0  0  0  0
   -6.9215    0.7650  -13.0825 N   0  0  0  0  0  0
   -8.9030    3.4303  -11.4369 O   0  0  0  0  0  0
   -6.0424    0.0589  -10.6233 O   0  0  0  0  0  0
   -0.3590    3.8502  -13.2704 O   0  0  0  0  0  0
   -5.5111    8.3912  -11.1915 O   0  0  0  0  0  0
   -6.3478    8.4363  -12.2607 C   0  0  0  0  0  0
   -6.0304    8.3127  -13.4284 O   0  0  0  0  0  0
   -7.7586    8.5642  -11.7560 C   0  0  0  0  0  0
   -7.9907    7.7888  -10.4493 C   0  0  0  0  0  0
   -9.3175    8.1579   -9.7735 C   0  0  0  0  0  0
   -9.4090    7.5596   -8.3890 C   0  0  0  0  0  0
   -8.8175    8.0113   -7.4144 O   0  0  0  0  0  0
  -10.2046    6.4818   -8.3242 O   0  0  0  0  0  0
   -7.9931    6.3032  -10.8350 C   0  0  0  0  0  0
   -7.9521    5.9146  -11.9925 O   0  0  0  0  0  0
   -8.0940    5.4623   -9.7964 O   0  0  0  0  0  0
   -2.1945    8.3418   -9.7831 O   0  0  0  0  0  0
   -1.1643    8.5502  -10.6849 C   0  0  0  0  0  0
   -1.2565    9.2210  -11.7046 O   0  0  0  0  0  0
    0.1303    7.8407  -10.2666 C   0  0  0  0  0  0
    1.3922    8.1742  -11.1215 C   0  0  0  0  0  0
    2.5827    8.8528  -10.4197 C   0  0  0  0  0  0
    3.2361    9.9095  -11.2629 C   0  0  0  0  0  0
    3.5118    9.8054  -12.4502 O   0  0  0  0  0  0
    3.4851   11.0339  -10.5745 O   0  0  0  0  0  0
    1.9521    6.9908  -11.9205 C   0  0  0  0  0  0
    3.0768    6.5594  -11.7608 O   0  0  0  0  0  0
    1.0749    6.3823  -12.7461 O   0  0  0  0  0  0
   -7.2354    0.0732  -13.7618 H   0  0  0  0  0  0
   -6.7947    0.2418  -12.2132 H   0  0  0  0  0  0
   -8.9317    4.0063  -12.2298 H   0  0  0  0  0  0
   -5.2671   -0.4253  -10.2842 H   0  0  0  0  0  0
    0.1535    4.6562  -13.4499 H   0  0  0  0  0  0
  -10.6175    6.2174   -9.1686 H   0  0  0  0  0  0
   -8.2506    4.5181  -10.0470 H   0  0  0  0  0  0
    3.2078   10.8647   -9.6494 H   0  0  0  0  0  0
    0.1378    6.6599  -12.6410 H   0  0  0  0  0  0
  1  2  1  0  0  0
  2  3  1  0  0  0
  3  4  1  0  0  0
  4  5  1  0  0  0
  5  6  1  0  0  0
  5  7  1  0  0  0
  7  8  1  0  0  0
  7 39  1  0  0  0
  8  9  1  0  0  0
  8 27  1  0  0  0
  9 10  1  0  0  0
 10 11  1  0  0  0
 10 12  1  0  0  0
 12 13  1  0  0  0
 13 14  1  0  0  0
 13 26  1  0  0  0
 14 15  1  0  0  0
 15 16  1  0  0  0
 16 17  1  0  0  0
 17 18  1  0  0  0
 18 19  1  0  0  0
 18 25  1  0  0  0
 19 20  1  0  0  0
 20 21  1  0  0  0
 20 24  1  0  0  0
 21 22  1  0  0  0
 21 23  1  0  0  0
 23 51  1  0  0  0
 23 52  1  0  0  0
 24 53  1  0  0  0
 25 54  1  0  0  0
 26 55  1  0  0  0
 27 28  1  0  0  0
 28 29  2  0  0  0
 28 30  1  0  0  0
 30 31  1  0  0  0
 31 32  1  0  0  0
 31 36  1  0  0  0
 32 33  1  0  0  0
 33 34  2  0  0  0
 33 35  1  0  0  0
 35 56  1  0  0  0
 36 37  2  0  0  0
 36 38  1  0  0  0
 38 57  1  0  0  0
 39 40  1  0  0  0
 40 41  2  0  0  0
 40 42  1  0  0  0
 42 43  1  0  0  0
 43 44  1  0  0  0
 43 48  1  0  0  0
 44 45  1  0  0  0
 45 46  2  0  0  0
 45 47  1  0  0  0
 47 58  1  0  0  0
 48 49  2  0  0  0
 48 50  1  0  0  0
 50 59  1  0  0  0
M  END
>  <AUTHOR>
    GENERATED BY OPEN BABEL 2.4.1

>  <CHROM.1>
-72.09311502,-178.12922043,75.36935927,-66.44791605,140.74976863,-74.82733616
31.57559642,161.91895680,63.65877346,156.39916766,90.92153050,-73.38393347
70.22334429,130.98246425,-66.36376318,-177.82747427,165.11202507,44.35937978
65.71148235,78.04230694,176.74460013,167.65768821,165.93630907,23.93753752
-35.33662877,167.47727754,-170.48526941,-6.65350923,76.74972027,0.28153706
170.08790177,-4.54617175,-172.19895927,117.64209200,-140.44139015,-119.39884605
-44.48077992,2.72561017,-9.76698439,-3.72868278,6.70567830,-11.05036262,0.57562656
0.14399440,0.17957721

>  <COMPND>
    UNNAMED

>  <MASTER>
        0    0    0    0    0    0    0    0  109    0  109    0

>  <Name>
FB1.pdb

>  <RI>
0

>  <Rbt.Current_Directory>
/home/fc/tossine/FB1_39/p3/3_clust03

>  <Rbt.Executable>
rbdock/0.1.0

>  <Rbt.Library>
librxdock.so/0.1.0

>  <Rbt.Parameter_File>
/cluster/rxdock/data/scripts/dock.prm

>  <Rbt.Receptor>
rx_3.prm

>  <SCORE>
14.3558

>  <SCORE.INTER>
15.1721

>  <SCORE.INTER.CONST>
1

>  <SCORE.INTER.POLAR>
-0.381534

>  <SCORE.INTER.REPUL>
0.51565

>  <SCORE.INTER.ROT>
32

>  <SCORE.INTER.VDW>
-23.5089

>  <SCORE.INTER.norm>
0.303442

>  <SCORE.INTRA>
-1.12532

>  <SCORE.INTRA.DIHEDRAL>
5.1344

>  <SCORE.INTRA.DIHEDRAL.0>
47.3121

>  <SCORE.INTRA.POLAR>
-1.22972

>  <SCORE.INTRA.POLAR.0>
-1.47808

>  <SCORE.INTRA.REPUL>
0

>  <SCORE.INTRA.REPUL.0>
0

>  <SCORE.INTRA.VDW>
0.488538

>  <SCORE.INTRA.VDW.0>
-2.78316

>  <SCORE.INTRA.norm>
-0.0225064

>  <SCORE.RESTR>
0.30902

>  <SCORE.RESTR.CAVITY>
0.30902

>  <SCORE.RESTR.norm>
0.0061804

>  <SCORE.SYSTEM>
0

>  <SCORE.SYSTEM.CONST>
0

>  <SCORE.SYSTEM.DIHEDRAL>
0

>  <SCORE.SYSTEM.norm>
0

>  <SCORE.heavy>
50

>  <SCORE.norm>
0.287116

$$$$
