FB1.pdb
  RxDock  10072018273D
librxdock.so/0.1.0
 59 58  0  0  0  0  0  0  0  0999 V2000
   -3.3913    8.3645  -10.5508 C   0  0  0  0  0  0
   -2.5132    7.3766  -11.3152 C   0  0  0  0  0  0
   -2.4948    5.9934  -10.6439 C   0  0  0  0  0  0
   -1.6621    4.9418  -11.4188 C   0  0  0  0  0  0
   -2.3237    4.4176  -12.7409 C   0  0  0  0  0  0
   -1.1994    4.1008  -13.7539 C   0  0  0  0  0  0
   -3.2626    3.1572  -12.5225 C   0  0  0  0  0  0
   -2.6898    1.9760  -11.6045 C   0  0  0  0  0  0
   -2.8625    1.8774  -10.0269 C   0  0  0  0  0  0
   -2.1286    0.5787   -9.3227 C   0  0  0  0  0  0
   -0.7258    0.9940   -8.8825 C   0  0  0  0  0  0
   -2.9004   -0.0844   -8.0941 C   0  0  0  0  0  0
   -2.4016   -1.4153   -7.3205 C   0  0  0  0  0  0
   -3.1960   -2.0376   -6.1215 C   0  0  0  0  0  0
   -2.3983   -2.9342   -5.0684 C   0  0  0  0  0  0
   -3.0051   -3.4583   -3.7076 C   0  0  0  0  0  0
   -2.0601   -3.7566   -2.5137 C   0  0  0  0  0  0
   -2.7495   -4.1206   -1.1421 C   0  0  0  0  0  0
   -1.8161   -4.2936    0.0626 C   0  0  0  0  0  0
   -0.3802   -4.8350   -0.1889 C   0  0  0  0  0  0
    0.7881   -3.8583   -0.5152 C   0  0  0  0  0  0
    2.0710   -4.4877   -1.0399 C   0  0  0  0  0  0
    0.3323   -2.7719   -1.4031 N   0  0  0  0  0  0
   -0.0022   -5.4686    1.0599 O   0  0  0  0  0  0
   -3.6985   -3.0926   -0.8382 O   0  0  0  0  0  0
   -2.3778   -2.4410   -8.3275 O   0  0  0  0  0  0
   -3.2799    0.7470  -12.1085 O   0  0  0  0  0  0
   -2.5670   -0.3961  -11.9346 C   0  0  0  0  0  0
   -1.3804   -0.4720  -11.6785 O   0  0  0  0  0  0
   -3.5125   -1.5630  -12.0108 C   0  0  0  0  0  0
   -2.9250   -2.8404  -11.3899 C   0  0  0  0  0  0
   -3.8048   -4.0728  -11.6359 C   0  0  0  0  0  0
   -2.9993   -5.3471  -11.5317 C   0  0  0  0  0  0
   -2.7350   -6.0628  -12.4917 O   0  0  0  0  0  0
   -2.5959   -5.6237  -10.2829 O   0  0  0  0  0  0
   -1.5517   -3.0357  -12.0471 C   0  0  0  0  0  0
   -1.2943   -2.6567  -13.1795 O   0  0  0  0  0  0
   -0.6676   -3.7031  -11.2928 O   0  0  0  0  0  0
   -4.6255    3.5701  -12.1081 O   0  0  0  0  0  0
   -5.4370    4.1949  -13.0405 C   0  0  0  0  0  0
   -5.1611    4.3283  -14.2256 O   0  0  0  0  0  0
   -6.7433    4.7124  -12.4240 C   0  0  0  0  0  0
   -6.7147    6.1873  -11.9156 C   0  0  0  0  0  0
   -6.2802    6.4426  -10.4608 C   0  0  0  0  0  0
   -7.2142    5.8349   -9.4544 C   0  0  0  0  0  0
   -7.3058    4.6430   -9.1946 O   0  0  0  0  0  0
   -7.9592    6.7558   -8.8241 O   0  0  0  0  0  0
   -5.9177    7.1521  -12.8023 C   0  0  0  0  0  0
   -4.7313    7.0152  -13.0269 O   0  0  0  0  0  0
   -6.6435    8.1131  -13.4112 O   0  0  0  0  0  0
    0.5830   -2.9988   -2.3645 H   0  0  0  0  0  0
    0.8643   -1.9265   -1.1847 H   0  0  0  0  0  0
    0.0677   -4.7293    1.7003 H   0  0  0  0  0  0
   -3.2556   -2.2300   -0.9399 H   0  0  0  0  0  0
   -2.0935   -3.2694   -7.9063 H   0  0  0  0  0  0
   -1.9209   -6.3254  -10.2089 H   0  0  0  0  0  0
   -0.9681   -3.8777  -10.3665 H   0  0  0  0  0  0
   -8.5760    6.2667   -8.2397 H   0  0  0  0  0  0
   -6.1702    8.6172  -14.1099 H   0  0  0  0  0  0
  1  2  1  0  0  0
  2  3  1  0  0  0
  3  4  1  0  0  0
  4  5  1  0  0  0
  5  6  1  0  0  0
  5  7  1  0  0  0
  7  8  1  0  0  0
  7 39  1  0  0  0
  8  9  1  0  0  0
  8 27  1  0  0  0
  9 10  1  0  0  0
 10 11  1  0  0  0
 10 12  1  0  0  0
 12 13  1  0  0  0
 13 14  1  0  0  0
 13 26  1  0  0  0
 14 15  1  0  0  0
 15 16  1  0  0  0
 16 17  1  0  0  0
 17 18  1  0  0  0
 18 19  1  0  0  0
 18 25  1  0  0  0
 19 20  1  0  0  0
 20 21  1  0  0  0
 20 24  1  0  0  0
 21 22  1  0  0  0
 21 23  1  0  0  0
 23 51  1  0  0  0
 23 52  1  0  0  0
 24 53  1  0  0  0
 25 54  1  0  0  0
 26 55  1  0  0  0
 27 28  1  0  0  0
 28 29  2  0  0  0
 28 30  1  0  0  0
 30 31  1  0  0  0
 31 32  1  0  0  0
 31 36  1  0  0  0
 32 33  1  0  0  0
 33 34  2  0  0  0
 33 35  1  0  0  0
 35 56  1  0  0  0
 36 37  2  0  0  0
 36 38  1  0  0  0
 38 57  1  0  0  0
 39 40  1  0  0  0
 40 41  2  0  0  0
 40 42  1  0  0  0
 42 43  1  0  0  0
 43 44  1  0  0  0
 43 48  1  0  0  0
 44 45  1  0  0  0
 45 46  2  0  0  0
 45 47  1  0  0  0
 47 58  1  0  0  0
 48 49  2  0  0  0
 48 50  1  0  0  0
 50 59  1  0  0  0
M  END
>  <AUTHOR>
    GENERATED BY OPEN BABEL 2.4.1

>  <CHROM.1>
177.61280761,-73.18566442,147.40844345,-45.96433961,89.15938539,70.33091389
-178.06253850,151.89879008,92.31498013,176.22023202,-179.67185416,-155.62398912
-179.25578280,170.98991310,-153.27165252,173.37420404,-174.82194510,-31.39664371
-49.27952440,88.50941902,-167.07856899,-66.98241689,-98.19069500,-17.56562284
-161.41442889,-172.18449050,157.20812799,-29.40128480,-110.43425689,-167.44264976
-7.85839668,6.94795162,92.14148794,-89.37492035,-63.77503279,-60.60783107
73.70131686,176.07961177,-168.54421854,-3.05194297,0.54765507,-8.97720720
2.53913724,1.24648853,-1.71164443

>  <COMPND>
    UNNAMED

>  <MASTER>
        0    0    0    0    0    0    0    0  109    0  109    0

>  <Name>
FB1.pdb

>  <RI>
0

>  <Rbt.Current_Directory>
/home/fc/tossine/FB1_39/p3/3_clust03

>  <Rbt.Executable>
rbdock/0.1.0

>  <Rbt.Library>
librxdock.so/0.1.0

>  <Rbt.Parameter_File>
/cluster/rxdock/data/scripts/dock.prm

>  <Rbt.Receptor>
rx_4.prm

>  <SCORE>
11.2432

>  <SCORE.INTER>
5.51719

>  <SCORE.INTER.CONST>
1

>  <SCORE.INTER.POLAR>
-3.04968

>  <SCORE.INTER.REPUL>
1.49091

>  <SCORE.INTER.ROT>
32

>  <SCORE.INTER.VDW>
-28.9684

>  <SCORE.INTER.norm>
0.110344

>  <SCORE.INTRA>
5.57563

>  <SCORE.INTRA.DIHEDRAL>
5.40272

>  <SCORE.INTRA.DIHEDRAL.0>
47.3121

>  <SCORE.INTRA.POLAR>
1.45254

>  <SCORE.INTRA.POLAR.0>
-1.47808

>  <SCORE.INTRA.REPUL>
0.150272

>  <SCORE.INTRA.REPUL.0>
0

>  <SCORE.INTRA.VDW>
-2.81571

>  <SCORE.INTRA.VDW.0>
-2.78316

>  <SCORE.INTRA.norm>
0.111513

>  <SCORE.RESTR>
0.150371

>  <SCORE.RESTR.CAVITY>
0.150371

>  <SCORE.RESTR.norm>
0.00300742

>  <SCORE.SYSTEM>
0

>  <SCORE.SYSTEM.CONST>
0

>  <SCORE.SYSTEM.DIHEDRAL>
0

>  <SCORE.SYSTEM.norm>
0

>  <SCORE.heavy>
50

>  <SCORE.norm>
0.224864

$$$$
