FB1.pdb
  RxDock  10072017503D
librxdock.so/0.1.0
 59 58  0  0  0  0  0  0  0  0999 V2000
   -3.9501   -0.4383  -13.3283 C   0  0  0  0  0  0
   -2.8272    0.0559  -14.2374 C   0  0  0  0  0  0
   -2.1008    1.2704  -13.6363 C   0  0  0  0  0  0
   -0.9785    0.8876  -12.6395 C   0  0  0  0  0  0
   -1.4522    0.0536  -11.3983 C   0  0  0  0  0  0
   -0.2300   -0.1933  -10.4841 C   0  0  0  0  0  0
   -2.6359    0.7359  -10.5913 C   0  0  0  0  0  0
   -3.1622   -0.0317   -9.2875 C   0  0  0  0  0  0
   -2.4240   -0.0556   -7.8794 C   0  0  0  0  0  0
   -2.9751   -1.1937   -6.8200 C   0  0  0  0  0  0
   -4.0283   -2.0451   -7.5271 C   0  0  0  0  0  0
   -1.8697   -2.1420   -6.1689 C   0  0  0  0  0  0
   -1.8814   -2.6215   -4.6234 C   0  0  0  0  0  0
   -0.9980   -3.8076   -4.1051 C   0  0  0  0  0  0
   -0.9710   -4.1026   -2.5362 C   0  0  0  0  0  0
    0.2506   -3.7728   -1.5909 C   0  0  0  0  0  0
   -0.0010   -3.4951   -0.0852 C   0  0  0  0  0  0
    1.2567   -3.5648    0.8648 C   0  0  0  0  0  0
    2.6207   -3.3276    0.2047 C   0  0  0  0  0  0
    3.4750   -4.5662   -0.1881 C   0  0  0  0  0  0
    4.0272   -5.5262    0.9068 C   0  0  0  0  0  0
    4.6010   -6.8498    0.4206 C   0  0  0  0  0  0
    4.9849   -4.8269    1.7844 N   0  0  0  0  0  0
    2.5878   -5.3847   -0.9923 O   0  0  0  0  0  0
    1.0796   -2.5958    1.9038 O   0  0  0  0  0  0
   -1.4436   -1.4735   -3.8770 O   0  0  0  0  0  0
   -4.4761    0.5169   -8.9956 O   0  0  0  0  0  0
   -5.4382    0.3492   -9.9399 C   0  0  0  0  0  0
   -5.4381   -0.4828  -10.8271 O   0  0  0  0  0  0
   -6.5638    1.3024   -9.6470 C   0  0  0  0  0  0
   -7.8115    1.0224  -10.4999 C   0  0  0  0  0  0
   -8.9391    0.3637   -9.6949 C   0  0  0  0  0  0
   -8.4898   -0.9523   -9.1036 C   0  0  0  0  0  0
   -7.5038   -1.5691   -9.4922 O   0  0  0  0  0  0
   -9.2744   -1.3854   -8.1058 O   0  0  0  0  0  0
   -8.2734    2.3860  -11.0321 C   0  0  0  0  0  0
   -9.2268    2.9942  -10.5699 O   0  0  0  0  0  0
   -7.5733    2.8357  -12.0826 O   0  0  0  0  0  0
   -2.3418    2.1628  -10.3136 O   0  0  0  0  0  0
   -3.3157    3.1046  -10.6013 C   0  0  0  0  0  0
   -4.4381    2.8421  -11.0130 O   0  0  0  0  0  0
   -2.8345    4.5389  -10.3454 C   0  0  0  0  0  0
   -3.3077    5.6068  -11.3798 C   0  0  0  0  0  0
   -2.8876    7.0704  -11.1522 C   0  0  0  0  0  0
   -3.3234    7.9850  -12.2604 C   0  0  0  0  0  0
   -4.3290    8.6817  -12.2567 O   0  0  0  0  0  0
   -2.4662    7.9852  -13.2926 O   0  0  0  0  0  0
   -2.9874    5.2656  -12.8404 C   0  0  0  0  0  0
   -3.8452    5.1328  -13.6909 O   0  0  0  0  0  0
   -1.6748    5.2258  -13.1516 O   0  0  0  0  0  0
    4.5139   -4.0444    2.2364 H   0  0  0  0  0  0
    5.7084   -4.3984    1.2026 H   0  0  0  0  0  0
    1.9063   -5.7018   -0.3626 H   0  0  0  0  0  0
    0.9904   -1.7180    1.4890 H   0  0  0  0  0  0
   -1.9914   -0.7157   -4.1421 H   0  0  0  0  0  0
  -10.0737   -0.8491   -7.9415 H   0  0  0  0  0  0
   -7.8015    3.7564  -12.3637 H   0  0  0  0  0  0
   -2.8075    8.6361  -13.9416 H   0  0  0  0  0  0
   -1.0606    5.2585  -12.3850 H   0  0  0  0  0  0
  1  2  1  0  0  0
  2  3  1  0  0  0
  3  4  1  0  0  0
  4  5  1  0  0  0
  5  6  1  0  0  0
  5  7  1  0  0  0
  7  8  1  0  0  0
  7 39  1  0  0  0
  8  9  1  0  0  0
  8 27  1  0  0  0
  9 10  1  0  0  0
 10 11  1  0  0  0
 10 12  1  0  0  0
 12 13  1  0  0  0
 13 14  1  0  0  0
 13 26  1  0  0  0
 14 15  1  0  0  0
 15 16  1  0  0  0
 16 17  1  0  0  0
 17 18  1  0  0  0
 18 19  1  0  0  0
 18 25  1  0  0  0
 19 20  1  0  0  0
 20 21  1  0  0  0
 20 24  1  0  0  0
 21 22  1  0  0  0
 21 23  1  0  0  0
 23 51  1  0  0  0
 23 52  1  0  0  0
 24 53  1  0  0  0
 25 54  1  0  0  0
 26 55  1  0  0  0
 27 28  1  0  0  0
 28 29  2  0  0  0
 28 30  1  0  0  0
 30 31  1  0  0  0
 31 32  1  0  0  0
 31 36  1  0  0  0
 32 33  1  0  0  0
 33 34  2  0  0  0
 33 35  1  0  0  0
 35 56  1  0  0  0
 36 37  2  0  0  0
 36 38  1  0  0  0
 38 57  1  0  0  0
 39 40  1  0  0  0
 40 41  2  0  0  0
 40 42  1  0  0  0
 42 43  1  0  0  0
 43 44  1  0  0  0
 43 48  1  0  0  0
 44 45  1  0  0  0
 45 46  2  0  0  0
 45 47  1  0  0  0
 47 58  1  0  0  0
 48 49  2  0  0  0
 48 50  1  0  0  0
 50 59  1  0  0  0
M  END
>  <AUTHOR>
    GENERATED BY OPEN BABEL 2.4.1

>  <CHROM.1>
84.75046200,-59.54487893,-177.77249189,-178.69039170,77.07450959,131.13053626
-166.11244851,62.05583743,4.47474796,140.44583485,164.91258842,173.80553860
51.90380920,-106.69195383,152.92277405,163.79086386,24.06061805,-98.07958596
-59.02664747,-64.74823839,167.88503409,-68.03452092,59.94083365,20.41897904
-169.62874424,105.84672959,-59.41485415,-103.12142015,-17.53501024,5.38687314
-173.50500660,3.68638712,141.41498063,178.34777302,176.08710509,119.62428597
96.88468062,-177.37110660,10.52532318,-2.71485269,0.29171282,-7.94762413
2.04485667,-0.35407986,-0.79044511

>  <COMPND>
    UNNAMED

>  <MASTER>
        0    0    0    0    0    0    0    0  109    0  109    0

>  <Name>
FB1.pdb

>  <RI>
0

>  <Rbt.Current_Directory>
/home/fc/tossine/FB1_39/p3/3_clust03

>  <Rbt.Executable>
rbdock/0.1.0

>  <Rbt.Library>
librxdock.so/0.1.0

>  <Rbt.Parameter_File>
/cluster/rxdock/data/scripts/dock.prm

>  <Rbt.Receptor>
rx_3.prm

>  <SCORE>
12.7632

>  <SCORE.INTER>
-1.1067

>  <SCORE.INTER.CONST>
1

>  <SCORE.INTER.POLAR>
-3.80652

>  <SCORE.INTER.REPUL>
0.0406779

>  <SCORE.INTER.ROT>
32

>  <SCORE.INTER.VDW>
-25.7679

>  <SCORE.INTER.norm>
-0.0221341

>  <SCORE.INTRA>
12.1969

>  <SCORE.INTRA.DIHEDRAL>
12.1984

>  <SCORE.INTRA.DIHEDRAL.0>
47.3121

>  <SCORE.INTRA.POLAR>
1.47808

>  <SCORE.INTRA.POLAR.0>
-1.47808

>  <SCORE.INTRA.REPUL>
0

>  <SCORE.INTRA.REPUL.0>
0

>  <SCORE.INTRA.VDW>
1.07219

>  <SCORE.INTRA.VDW.0>
-2.78316

>  <SCORE.INTRA.norm>
0.243937

>  <SCORE.RESTR>
1.67309

>  <SCORE.RESTR.CAVITY>
1.67309

>  <SCORE.RESTR.norm>
0.0334618

>  <SCORE.SYSTEM>
0

>  <SCORE.SYSTEM.CONST>
0

>  <SCORE.SYSTEM.DIHEDRAL>
0

>  <SCORE.SYSTEM.norm>
0

>  <SCORE.heavy>
50

>  <SCORE.norm>
0.255265

$$$$
