FB1.pdb
  RxDock  10072017063D
librxdock.so/0.1.0
 59 58  0  0  0  0  0  0  0  0999 V2000
    5.1965    6.1615  -14.3074 C   0  0  0  0  0  0
    4.0013    7.0904  -14.5069 C   0  0  0  0  0  0
    2.6674    6.3333  -14.3984 C   0  0  0  0  0  0
    2.3419    5.8588  -12.9602 C   0  0  0  0  0  0
    1.2534    4.7333  -12.8653 C   0  0  0  0  0  0
    1.3309    4.1004  -11.4567 C   0  0  0  0  0  0
   -0.2157    5.2452  -13.1774 C   0  0  0  0  0  0
   -1.3338    4.1278  -13.4369 C   0  0  0  0  0  0
   -1.2596    2.6234  -12.9274 C   0  0  0  0  0  0
   -2.6641    2.0272  -12.3004 C   0  0  0  0  0  0
   -2.6034    0.5011  -12.3393 C   0  0  0  0  0  0
   -3.0371    2.5103  -10.8265 C   0  0  0  0  0  0
   -2.0801    2.3116   -9.5369 C   0  0  0  0  0  0
   -1.8870    0.9210   -8.8402 C   0  0  0  0  0  0
   -0.5305    0.1223   -9.1066 C   0  0  0  0  0  0
   -0.2278   -0.7023  -10.4192 C   0  0  0  0  0  0
   -1.1779   -1.8572  -10.8327 C   0  0  0  0  0  0
   -1.3896   -3.0093   -9.7758 C   0  0  0  0  0  0
   -1.7970   -2.5696   -8.3640 C   0  0  0  0  0  0
   -3.3128   -2.4556   -8.0358 C   0  0  0  0  0  0
   -3.7946   -2.3096   -6.5621 C   0  0  0  0  0  0
   -5.2588   -2.6279   -6.2933 C   0  0  0  0  0  0
   -2.9150   -3.0590   -5.6449 N   0  0  0  0  0  0
   -3.7404   -1.2355   -8.6933 O   0  0  0  0  0  0
   -2.3931   -3.8954  -10.2835 O   0  0  0  0  0  0
   -0.7688    2.6905   -9.9878 O   0  0  0  0  0  0
   -2.5645    4.6427  -12.8603 O   0  0  0  0  0  0
   -3.6880    4.5469  -13.6178 C   0  0  0  0  0  0
   -3.7375    4.5353  -14.8330 O   0  0  0  0  0  0
   -4.8648    4.3539  -12.7016 C   0  0  0  0  0  0
   -6.0646    5.2332  -13.0885 C   0  0  0  0  0  0
   -7.3871    4.7111  -12.5125 C   0  0  0  0  0  0
   -7.3566    4.6989  -11.0017 C   0  0  0  0  0  0
   -6.3313    4.8347  -10.3429 O   0  0  0  0  0  0
   -8.5642    4.5262  -10.4443 O   0  0  0  0  0  0
   -5.7624    6.6297  -12.5276 C   0  0  0  0  0  0
   -4.8918    6.8407  -11.6969 O   0  0  0  0  0  0
   -6.5676    7.5968  -12.9882 O   0  0  0  0  0  0
   -0.6565    6.2488  -12.1782 O   0  0  0  0  0  0
   -0.9450    7.5310  -12.6150 C   0  0  0  0  0  0
   -0.4265    8.0696  -13.5843 O   0  0  0  0  0  0
   -2.0024    8.2208  -11.7430 C   0  0  0  0  0  0
   -1.6434    8.3672  -10.2316 C   0  0  0  0  0  0
   -2.2343    9.5614   -9.4602 C   0  0  0  0  0  0
   -1.6763   10.8820   -9.9064 C   0  0  0  0  0  0
   -2.2736   11.7237  -10.5632 O   0  0  0  0  0  0
   -0.4162   11.0745   -9.4876 O   0  0  0  0  0  0
   -1.9026    7.1115   -9.3901 C   0  0  0  0  0  0
   -2.2995    6.0669   -9.8677 O   0  0  0  0  0  0
   -1.5583    7.2050   -8.0886 O   0  0  0  0  0  0
   -1.9775   -3.1022   -6.0420 H   0  0  0  0  0  0
   -3.2314   -4.0307   -5.6101 H   0  0  0  0  0  0
   -3.9529   -1.5108   -9.6101 H   0  0  0  0  0  0
   -3.1761   -3.3648  -10.5197 H   0  0  0  0  0  0
   -0.1697    2.6686   -9.2229 H   0  0  0  0  0  0
   -9.2872    4.3274  -11.0698 H   0  0  0  0  0  0
   -7.1987    7.3045  -13.6918 H   0  0  0  0  0  0
   -0.2364   10.3875   -8.8116 H   0  0  0  0  0  0
   -1.0338    8.0011   -7.8493 H   0  0  0  0  0  0
  1  2  1  0  0  0
  2  3  1  0  0  0
  3  4  1  0  0  0
  4  5  1  0  0  0
  5  6  1  0  0  0
  5  7  1  0  0  0
  7  8  1  0  0  0
  7 39  1  0  0  0
  8  9  1  0  0  0
  8 27  1  0  0  0
  9 10  1  0  0  0
 10 11  1  0  0  0
 10 12  1  0  0  0
 12 13  1  0  0  0
 13 14  1  0  0  0
 13 26  1  0  0  0
 14 15  1  0  0  0
 15 16  1  0  0  0
 16 17  1  0  0  0
 17 18  1  0  0  0
 18 19  1  0  0  0
 18 25  1  0  0  0
 19 20  1  0  0  0
 20 21  1  0  0  0
 20 24  1  0  0  0
 21 22  1  0  0  0
 21 23  1  0  0  0
 23 51  1  0  0  0
 23 52  1  0  0  0
 24 53  1  0  0  0
 25 54  1  0  0  0
 26 55  1  0  0  0
 27 28  1  0  0  0
 28 29  2  0  0  0
 28 30  1  0  0  0
 30 31  1  0  0  0
 31 32  1  0  0  0
 31 36  1  0  0  0
 32 33  1  0  0  0
 33 34  2  0  0  0
 33 35  1  0  0  0
 35 56  1  0  0  0
 36 37  2  0  0  0
 36 38  1  0  0  0
 38 57  1  0  0  0
 39 40  1  0  0  0
 40 41  2  0  0  0
 40 42  1  0  0  0
 42 43  1  0  0  0
 43 44  1  0  0  0
 43 48  1  0  0  0
 44 45  1  0  0  0
 45 46  2  0  0  0
 45 47  1  0  0  0
 47 58  1  0  0  0
 48 49  2  0  0  0
 48 50  1  0  0  0
 50 59  1  0  0  0
M  END
>  <AUTHOR>
    GENERATED BY OPEN BABEL 2.4.1

>  <CHROM.1>
70.04045453,-162.12424652,164.18066038,166.32276534,22.78689995,117.74187858
136.89840366,133.59210852,159.44563504,-57.11926154,-74.43951262,103.75403722
174.72485255,-78.14920151,-58.04587924,-57.20496483,51.95889846,90.62634270
-52.66049981,167.10270503,-161.94223058,85.68485021,28.73298387,-28.05439518
135.44173540,159.70087689,61.54243235,-14.86313707,-13.26531747,6.82007373
-5.34078875,-29.05455815,58.78688268,150.77290140,-68.08127296,3.08999287
107.44855488,-12.90763143,-10.46167249,-2.24870512,3.97601981,-11.04300789
-1.40023064,-0.22491452,2.86681304

>  <COMPND>
    UNNAMED

>  <MASTER>
        0    0    0    0    0    0    0    0  109    0  109    0

>  <Name>
FB1.pdb

>  <RI>
0

>  <Rbt.Current_Directory>
/home/fc/tossine/FB1_39/p3/3_clust03

>  <Rbt.Executable>
rbdock/0.1.0

>  <Rbt.Library>
librxdock.so/0.1.0

>  <Rbt.Parameter_File>
/cluster/rxdock/data/scripts/dock.prm

>  <Rbt.Receptor>
rx_2.prm

>  <SCORE>
25.2748

>  <SCORE.INTER>
1.47359

>  <SCORE.INTER.CONST>
1

>  <SCORE.INTER.POLAR>
-2.45573

>  <SCORE.INTER.REPUL>
0.456787

>  <SCORE.INTER.ROT>
32

>  <SCORE.INTER.VDW>
-29.8608

>  <SCORE.INTER.norm>
0.0294719

>  <SCORE.INTRA>
22.5192

>  <SCORE.INTRA.DIHEDRAL>
22.1446

>  <SCORE.INTRA.DIHEDRAL.0>
47.3121

>  <SCORE.INTRA.POLAR>
1.47808

>  <SCORE.INTRA.POLAR.0>
-1.47808

>  <SCORE.INTRA.REPUL>
0.728101

>  <SCORE.INTRA.REPUL.0>
0

>  <SCORE.INTRA.VDW>
2.78095

>  <SCORE.INTRA.VDW.0>
-2.78316

>  <SCORE.INTRA.norm>
0.450384

>  <SCORE.RESTR>
1.28199

>  <SCORE.RESTR.CAVITY>
1.28199

>  <SCORE.RESTR.norm>
0.0256397

>  <SCORE.SYSTEM>
0

>  <SCORE.SYSTEM.CONST>
0

>  <SCORE.SYSTEM.DIHEDRAL>
0

>  <SCORE.SYSTEM.norm>
0

>  <SCORE.heavy>
50

>  <SCORE.norm>
0.505496

$$$$
