FB1.pdb
  RxDock  10072015093D
librxdock.so/0.1.0
 59 58  0  0  0  0  0  0  0  0999 V2000
   -6.0177   -5.5841  -13.5430 C   0  0  0  0  0  0
   -5.6148   -4.8179  -12.2852 C   0  0  0  0  0  0
   -5.6020   -3.2989  -12.5234 C   0  0  0  0  0  0
   -5.0174   -2.4926  -11.3369 C   0  0  0  0  0  0
   -4.8549   -0.9546  -11.5983 C   0  0  0  0  0  0
   -6.2598   -0.3492  -11.8231 C   0  0  0  0  0  0
   -4.0878   -0.1924  -10.4371 C   0  0  0  0  0  0
   -2.7229   -0.8494   -9.9159 C   0  0  0  0  0  0
   -2.6213   -2.1618   -9.0239 C   0  0  0  0  0  0
   -2.1098   -1.9168   -7.4748 C   0  0  0  0  0  0
   -2.5080   -0.5042   -7.0502 C   0  0  0  0  0  0
   -2.6251   -2.9667   -6.3899 C   0  0  0  0  0  0
   -2.4213   -2.7962   -4.7937 C   0  0  0  0  0  0
   -1.7756   -3.9141   -3.9051 C   0  0  0  0  0  0
   -0.4903   -4.6783   -4.4647 C   0  0  0  0  0  0
    0.2713   -5.8231   -3.6875 C   0  0  0  0  0  0
    0.7876   -5.5577   -2.2486 C   0  0  0  0  0  0
    1.6423   -6.7047   -1.5829 C   0  0  0  0  0  0
    2.2462   -6.3914   -0.2083 C   0  0  0  0  0  0
    3.0488   -5.0702   -0.0393 C   0  0  0  0  0  0
    2.3234   -3.6927   -0.0805 C   0  0  0  0  0  0
    1.2870   -3.4401    1.0055 C   0  0  0  0  0  0
    3.2981   -2.5873   -0.1466 N   0  0  0  0  0  0
    3.6194   -5.1544    1.2916 O   0  0  0  0  0  0
    0.8088   -7.8622   -1.4604 O   0  0  0  0  0  0
   -1.5561   -1.6571   -4.6511 O   0  0  0  0  0  0
   -1.9422   -1.1593  -11.1021 O   0  0  0  0  0  0
   -1.6023   -0.1184  -11.9061 C   0  0  0  0  0  0
   -1.7925   -0.0436  -13.1051 O   0  0  0  0  0  0
   -1.0381    0.9808  -11.0488 C   0  0  0  0  0  0
   -0.7548    2.2643  -11.8455 C   0  0  0  0  0  0
   -2.0209    2.8559  -12.4782 C   0  0  0  0  0  0
   -1.6817    3.7208  -13.6700 C   0  0  0  0  0  0
   -0.5413    3.8754  -14.0932 O   0  0  0  0  0  0
   -2.7520    4.3066  -14.2270 O   0  0  0  0  0  0
   -0.1545    3.2594  -10.8428 C   0  0  0  0  0  0
    0.1588    2.9506   -9.7030 O   0  0  0  0  0  0
   -0.0468    4.5128  -11.3045 O   0  0  0  0  0  0
   -3.9231    1.2462  -10.7584 O   0  0  0  0  0  0
   -3.8217    2.1478   -9.7120 C   0  0  0  0  0  0
   -3.6780    1.8373   -8.5368 O   0  0  0  0  0  0
   -3.9089    3.6045  -10.1861 C   0  0  0  0  0  0
   -5.2067    3.9875  -10.9630 C   0  0  0  0  0  0
   -6.5527    3.8714  -10.2245 C   0  0  0  0  0  0
   -6.6039    4.6893   -8.9664 C   0  0  0  0  0  0
   -5.7665    4.6799   -8.0746 O   0  0  0  0  0  0
   -7.6867    5.4799   -8.9119 O   0  0  0  0  0  0
   -5.1700    5.3716  -11.6227 C   0  0  0  0  0  0
   -5.2842    6.4056  -10.9946 O   0  0  0  0  0  0
   -4.8936    5.3767  -12.9436 O   0  0  0  0  0  0
    2.8238   -1.7421   -0.4615 H   0  0  0  0  0  0
    3.9793   -2.7958   -0.8801 H   0  0  0  0  0  0
    4.5402   -4.8344    1.1859 H   0  0  0  0  0  0
    1.2972   -8.5364   -0.9531 H   0  0  0  0  0  0
   -1.3393   -1.5603   -3.7087 H   0  0  0  0  0  0
   -3.5956    4.1676  -13.7554 H   0  0  0  0  0  0
   -0.8075    4.8111  -11.8624 H   0  0  0  0  0  0
   -7.5372    6.1114   -8.1770 H   0  0  0  0  0  0
   -5.0179    6.2410  -13.3950 H   0  0  0  0  0  0
  1  2  1  0  0  0
  2  3  1  0  0  0
  3  4  1  0  0  0
  4  5  1  0  0  0
  5  6  1  0  0  0
  5  7  1  0  0  0
  7  8  1  0  0  0
  7 39  1  0  0  0
  8  9  1  0  0  0
  8 27  1  0  0  0
  9 10  1  0  0  0
 10 11  1  0  0  0
 10 12  1  0  0  0
 12 13  1  0  0  0
 13 14  1  0  0  0
 13 26  1  0  0  0
 14 15  1  0  0  0
 15 16  1  0  0  0
 16 17  1  0  0  0
 17 18  1  0  0  0
 18 19  1  0  0  0
 18 25  1  0  0  0
 19 20  1  0  0  0
 20 21  1  0  0  0
 20 24  1  0  0  0
 21 22  1  0  0  0
 21 23  1  0  0  0
 23 51  1  0  0  0
 23 52  1  0  0  0
 24 53  1  0  0  0
 25 54  1  0  0  0
 26 55  1  0  0  0
 27 28  1  0  0  0
 28 29  2  0  0  0
 28 30  1  0  0  0
 30 31  1  0  0  0
 31 32  1  0  0  0
 31 36  1  0  0  0
 32 33  1  0  0  0
 33 34  2  0  0  0
 33 35  1  0  0  0
 35 56  1  0  0  0
 36 37  2  0  0  0
 36 38  1  0  0  0
 38 57  1  0  0  0
 39 40  1  0  0  0
 40 41  2  0  0  0
 40 42  1  0  0  0
 42 43  1  0  0  0
 43 44  1  0  0  0
 43 48  1  0  0  0
 44 45  1  0  0  0
 45 46  2  0  0  0
 45 47  1  0  0  0
 47 58  1  0  0  0
 48 49  2  0  0  0
 48 50  1  0  0  0
 50 59  1  0  0  0
M  END
>  <AUTHOR>
    GENERATED BY OPEN BABEL 2.4.1

>  <CHROM.1>
-172.23233393,174.16383780,63.58993027,47.81672004,-72.79156248,152.75539645
-110.94348964,60.54757054,27.97185392,-170.89686955,-127.07132095,42.36692989
-175.07473610,179.89161345,-54.64243148,-175.05293909,175.14287371,-50.49097094
-173.23499381,69.35342542,62.25544911,137.15972010,162.47359974,-127.64703444
-174.09522434,61.23814993,-156.47843000,8.17474037,2.64684359,5.03663943
38.95209190,10.27923272,57.91790247,61.94403211,57.32730336,-75.11034967
-50.45669755,-167.46591243,170.16868469,-2.25673651,-0.27197380,-8.28873150
2.41252814,-1.04015812,-0.14445670

>  <COMPND>
    UNNAMED

>  <MASTER>
        0    0    0    0    0    0    0    0  109    0  109    0

>  <Name>
FB1.pdb

>  <RI>
0

>  <Rbt.Current_Directory>
/home/fc/tossine/FB1_39/p3/3_clust03

>  <Rbt.Executable>
rbdock/0.1.0

>  <Rbt.Library>
librxdock.so/0.1.0

>  <Rbt.Parameter_File>
/cluster/rxdock/data/scripts/dock.prm

>  <Rbt.Receptor>
rx_0.prm

>  <SCORE>
25.5995

>  <SCORE.INTER>
7.03119

>  <SCORE.INTER.CONST>
1

>  <SCORE.INTER.POLAR>
-3.44525

>  <SCORE.INTER.REPUL>
1.0349

>  <SCORE.INTER.ROT>
32

>  <SCORE.INTER.VDW>
-23.8295

>  <SCORE.INTER.norm>
0.140624

>  <SCORE.INTRA>
18.0771

>  <SCORE.INTRA.DIHEDRAL>
21.6458

>  <SCORE.INTRA.DIHEDRAL.0>
47.3121

>  <SCORE.INTRA.POLAR>
0.809271

>  <SCORE.INTRA.POLAR.0>
-1.47808

>  <SCORE.INTRA.REPUL>
0

>  <SCORE.INTRA.REPUL.0>
0

>  <SCORE.INTRA.VDW>
4.50271

>  <SCORE.INTRA.VDW.0>
-2.78316

>  <SCORE.INTRA.norm>
0.361543

>  <SCORE.RESTR>
0.491158

>  <SCORE.RESTR.CAVITY>
0.491158

>  <SCORE.RESTR.norm>
0.00982316

>  <SCORE.SYSTEM>
0

>  <SCORE.SYSTEM.CONST>
0

>  <SCORE.SYSTEM.DIHEDRAL>
0

>  <SCORE.SYSTEM.norm>
0

>  <SCORE.heavy>
50

>  <SCORE.norm>
0.51199

$$$$
