FB1.pdb
  RxDock  10072016003D
librxdock.so/0.1.0
 59 58  0  0  0  0  0  0  0  0999 V2000
   -3.6368   10.5901  -10.2673 C   0  0  0  0  0  0
   -3.6605    9.2416  -10.9830 C   0  0  0  0  0  0
   -4.9765    8.4869  -10.7320 C   0  0  0  0  0  0
   -4.8898    6.9727  -11.0471 C   0  0  0  0  0  0
   -6.2621    6.2131  -11.0271 C   0  0  0  0  0  0
   -7.1113    6.7133  -12.2185 C   0  0  0  0  0  0
   -6.1123    4.6338  -11.0606 C   0  0  0  0  0  0
   -5.7195    3.9717  -12.4654 C   0  0  0  0  0  0
   -4.4902    2.9916  -12.7031 C   0  0  0  0  0  0
   -3.0638    3.7347  -13.0698 C   0  0  0  0  0  0
   -3.3565    4.9202  -13.9881 C   0  0  0  0  0  0
   -2.1861    4.2223  -11.8302 C   0  0  0  0  0  0
   -1.5473    3.2290  -10.7238 C   0  0  0  0  0  0
   -0.6910    3.7520   -9.5200 C   0  0  0  0  0  0
    0.3659    4.9174   -9.7921 C   0  0  0  0  0  0
    0.0060    6.3079  -10.4490 C   0  0  0  0  0  0
    0.5295    6.6399  -11.8713 C   0  0  0  0  0  0
   -0.0903    7.9101  -12.5726 C   0  0  0  0  0  0
    0.0114    9.2306  -11.7990 C   0  0  0  0  0  0
   -0.9103   10.4081  -12.2260 C   0  0  0  0  0  0
   -0.7178   11.8265  -11.6123 C   0  0  0  0  0  0
   -1.8084   12.8465  -11.9084 C   0  0  0  0  0  0
   -0.4553   11.7408  -10.1631 N   0  0  0  0  0  0
   -0.6593   10.5756  -13.6447 O   0  0  0  0  0  0
    0.5557    8.0744  -13.8397 O   0  0  0  0  0  0
   -2.6753    2.5702  -10.1237 O   0  0  0  0  0  0
   -6.8785    3.2051  -12.8915 O   0  0  0  0  0  0
   -7.0619    3.0565  -14.2292 C   0  0  0  0  0  0
   -6.4210    3.6008  -15.1081 O   0  0  0  0  0  0
   -8.1302    2.0216  -14.4511 C   0  0  0  0  0  0
   -9.4480    2.6321  -14.9542 C   0  0  0  0  0  0
   -9.8601    3.8786  -14.1606 C   0  0  0  0  0  0
   -9.6601    3.6712  -12.6772 C   0  0  0  0  0  0
   -9.1161    4.4907  -11.9450 O   0  0  0  0  0  0
  -10.1380    2.4996  -12.2323 O   0  0  0  0  0  0
   -9.2078    3.0012  -16.4246 C   0  0  0  0  0  0
   -8.0996    3.0047  -16.9388 O   0  0  0  0  0  0
  -10.3114    3.3689  -17.0899 O   0  0  0  0  0  0
   -5.2415    4.1552   -9.9594 O   0  0  0  0  0  0
   -5.5206    2.9262   -9.3852 C   0  0  0  0  0  0
   -5.0974    2.5529   -8.2989 O   0  0  0  0  0  0
   -6.4331    2.0635  -10.2669 C   0  0  0  0  0  0
   -5.7487    0.8464  -10.9632 C   0  0  0  0  0  0
   -5.1339   -0.2463  -10.0697 C   0  0  0  0  0  0
   -3.6646   -0.0503   -9.8303 C   0  0  0  0  0  0
   -2.7783   -0.2194  -10.6563 O   0  0  0  0  0  0
   -3.3987    0.3626   -8.5816 O   0  0  0  0  0  0
   -6.6180    0.1392  -12.0103 C   0  0  0  0  0  0
   -7.7951    0.3939  -12.1722 O   0  0  0  0  0  0
   -5.9645   -0.7176  -12.8228 O   0  0  0  0  0  0
    0.0396   10.8725   -9.9641 H   0  0  0  0  0  0
   -1.3488   11.6529   -9.6739 H   0  0  0  0  0  0
   -1.5416   10.7584  -14.0314 H   0  0  0  0  0  0
    0.2730    8.9278  -14.2168 H   0  0  0  0  0  0
   -3.3124    3.2520   -9.8523 H   0  0  0  0  0  0
   -9.9876    2.3214  -11.2841 H   0  0  0  0  0  0
  -10.1520    3.6499  -18.0250 H   0  0  0  0  0  0
   -2.4407    0.5687   -8.5515 H   0  0  0  0  0  0
   -4.9916   -0.7625  -12.6900 H   0  0  0  0  0  0
  1  2  1  0  0  0
  2  3  1  0  0  0
  3  4  1  0  0  0
  4  5  1  0  0  0
  5  6  1  0  0  0
  5  7  1  0  0  0
  7  8  1  0  0  0
  7 39  1  0  0  0
  8  9  1  0  0  0
  8 27  1  0  0  0
  9 10  1  0  0  0
 10 11  1  0  0  0
 10 12  1  0  0  0
 12 13  1  0  0  0
 13 14  1  0  0  0
 13 26  1  0  0  0
 14 15  1  0  0  0
 15 16  1  0  0  0
 16 17  1  0  0  0
 17 18  1  0  0  0
 18 19  1  0  0  0
 18 25  1  0  0  0
 19 20  1  0  0  0
 20 21  1  0  0  0
 20 24  1  0  0  0
 21 22  1  0  0  0
 21 23  1  0  0  0
 23 51  1  0  0  0
 23 52  1  0  0  0
 24 53  1  0  0  0
 25 54  1  0  0  0
 26 55  1  0  0  0
 27 28  1  0  0  0
 28 29  2  0  0  0
 28 30  1  0  0  0
 30 31  1  0  0  0
 31 32  1  0  0  0
 31 36  1  0  0  0
 32 33  1  0  0  0
 33 34  2  0  0  0
 33 35  1  0  0  0
 35 56  1  0  0  0
 36 37  2  0  0  0
 36 38  1  0  0  0
 38 57  1  0  0  0
 39 40  1  0  0  0
 40 41  2  0  0  0
 40 42  1  0  0  0
 42 43  1  0  0  0
 43 44  1  0  0  0
 43 48  1  0  0  0
 44 45  1  0  0  0
 45 46  2  0  0  0
 45 47  1  0  0  0
 47 58  1  0  0  0
 48 49  2  0  0  0
 48 50  1  0  0  0
 50 59  1  0  0  0
M  END
>  <AUTHOR>
    GENERATED BY OPEN BABEL 2.4.1

>  <CHROM.1>
-161.99123957,-170.58559583,67.98566754,-75.38043585,126.04109691,146.46516597
-88.20027432,151.08569032,-38.60239499,63.25610056,-179.95900604,-41.38781234
-51.02677235,55.03083350,-111.06269894,168.54146488,55.53408892,-162.88824214
-171.72428137,-171.56546234,-169.84678773,140.16995180,31.11669760,-7.08739480
108.16224104,-46.02129707,-43.21603414,-11.69834165,133.33495375,177.43418597
177.13502512,-162.40291653,107.72112203,61.78957235,-95.13197323,-8.65482501
-71.90315062,-173.15296738,-3.14487904,-4.62090527,4.67281369,-12.00542331
0.70084054,-0.52429744,-0.33793759

>  <COMPND>
    UNNAMED

>  <MASTER>
        0    0    0    0    0    0    0    0  109    0  109    0

>  <Name>
FB1.pdb

>  <RI>
0

>  <Rbt.Current_Directory>
/home/fc/tossine/FB1_39/p3/3_clust03

>  <Rbt.Executable>
rbdock/0.1.0

>  <Rbt.Library>
librxdock.so/0.1.0

>  <Rbt.Parameter_File>
/cluster/rxdock/data/scripts/dock.prm

>  <Rbt.Receptor>
rx_1.prm

>  <SCORE>
22.8151

>  <SCORE.INTER>
18.1949

>  <SCORE.INTER.CONST>
1

>  <SCORE.INTER.POLAR>
-0.903902

>  <SCORE.INTER.REPUL>
0.00764586

>  <SCORE.INTER.ROT>
32

>  <SCORE.INTER.VDW>
-16.1701

>  <SCORE.INTER.norm>
0.363898

>  <SCORE.INTRA>
2.28763

>  <SCORE.INTRA.DIHEDRAL>
8.43978

>  <SCORE.INTRA.DIHEDRAL.0>
47.3121

>  <SCORE.INTRA.POLAR>
-0.300822

>  <SCORE.INTRA.POLAR.0>
-1.47808

>  <SCORE.INTRA.REPUL>
0

>  <SCORE.INTRA.REPUL.0>
0

>  <SCORE.INTRA.VDW>
-0.909465

>  <SCORE.INTRA.VDW.0>
-2.78316

>  <SCORE.INTRA.norm>
0.0457525

>  <SCORE.RESTR>
2.33259

>  <SCORE.RESTR.CAVITY>
2.33259

>  <SCORE.RESTR.norm>
0.0466518

>  <SCORE.SYSTEM>
0

>  <SCORE.SYSTEM.CONST>
0

>  <SCORE.SYSTEM.DIHEDRAL>
0

>  <SCORE.SYSTEM.norm>
0

>  <SCORE.heavy>
50

>  <SCORE.norm>
0.456302

$$$$
