FB1.pdb
  RxDock  10072018253D
librxdock.so/0.1.0
 59 58  0  0  0  0  0  0  0  0999 V2000
   -2.3256   -0.1719  -14.0729 C   0  0  0  0  0  0
   -3.1825   -0.0299  -12.8171 C   0  0  0  0  0  0
   -4.3803   -0.9940  -12.8332 C   0  0  0  0  0  0
   -5.4570   -0.6589  -11.7712 C   0  0  0  0  0  0
   -4.9499   -0.6757  -10.2869 C   0  0  0  0  0  0
   -4.1305   -1.9685  -10.0683 C   0  0  0  0  0  0
   -4.1026    0.6067   -9.8927 C   0  0  0  0  0  0
   -2.5611    0.3730   -9.5249 C   0  0  0  0  0  0
   -1.4562    1.5138   -9.4456 C   0  0  0  0  0  0
   -0.7609    1.9155  -10.8866 C   0  0  0  0  0  0
   -1.8320    2.5266  -11.7884 C   0  0  0  0  0  0
    0.4971    2.8936  -10.8117 C   0  0  0  0  0  0
    0.8789    3.9705  -11.9577 C   0  0  0  0  0  0
   -0.0452    5.1865  -12.3092 C   0  0  0  0  0  0
   -0.3105    6.2866  -11.1829 C   0  0  0  0  0  0
   -0.6943    7.7893  -11.4813 C   0  0  0  0  0  0
   -1.1563    8.7060  -10.3178 C   0  0  0  0  0  0
   -1.4284   10.2181  -10.6763 C   0  0  0  0  0  0
   -2.1206   10.4841  -12.0190 C   0  0  0  0  0  0
   -2.9358   11.7984  -12.1807 C   0  0  0  0  0  0
   -4.1237   12.1155  -11.2247 C   0  0  0  0  0  0
   -5.0603   13.2354  -11.6562 C   0  0  0  0  0  0
   -4.8799   10.8906  -10.9019 N   0  0  0  0  0  0
   -1.9737   12.8587  -11.9485 O   0  0  0  0  0  0
   -2.2292   10.7824   -9.6323 O   0  0  0  0  0  0
    2.1167    4.5547  -11.5182 O   0  0  0  0  0  0
   -2.5459   -0.2350   -8.2049 O   0  0  0  0  0  0
   -1.5903   -1.1709   -7.9678 C   0  0  0  0  0  0
   -0.6054   -1.3821   -8.6495 O   0  0  0  0  0  0
   -1.8969   -1.8430   -6.6579 C   0  0  0  0  0  0
   -2.7913   -3.0818   -6.8251 C   0  0  0  0  0  0
   -2.0395   -4.2728   -7.4331 C   0  0  0  0  0  0
   -3.0004   -5.2942   -7.9958 C   0  0  0  0  0  0
   -3.5911   -6.1205   -7.3088 O   0  0  0  0  0  0
   -3.1496   -5.2114   -9.3261 O   0  0  0  0  0  0
   -3.2873   -3.4372   -5.4167 C   0  0  0  0  0  0
   -4.4029   -3.1500   -5.0103 O   0  0  0  0  0  0
   -2.3758   -4.0479   -4.6471 O   0  0  0  0  0  0
   -4.2764    1.6906  -10.8901 O   0  0  0  0  0  0
   -5.4348    2.4483  -10.8449 C   0  0  0  0  0  0
   -6.3111    2.3310   -9.9983 O   0  0  0  0  0  0
   -5.5086    3.4707  -11.9867 C   0  0  0  0  0  0
   -4.2841    4.4287  -12.1184 C   0  0  0  0  0  0
   -4.1330    5.2345  -13.4216 C   0  0  0  0  0  0
   -3.4086    4.4787  -14.4979 C   0  0  0  0  0  0
   -2.2231    4.1771  -14.4837 O   0  0  0  0  0  0
   -4.2149    4.1317  -15.5128 O   0  0  0  0  0  0
   -4.1171    5.4138  -10.9548 C   0  0  0  0  0  0
   -3.5224    6.4680  -11.0624 O   0  0  0  0  0  0
   -4.7687    5.0853   -9.8196 O   0  0  0  0  0  0
   -5.5179   10.6802  -11.6683 H   0  0  0  0  0  0
   -5.4851   11.0821  -10.1003 H   0  0  0  0  0  0
   -1.4587   12.9112  -12.7812 H   0  0  0  0  0  0
   -3.1349   10.4325   -9.7206 H   0  0  0  0  0  0
    2.0534    4.7085  -10.5607 H   0  0  0  0  0  0
   -2.6490   -4.4926   -9.7576 H   0  0  0  0  0  0
   -2.7354   -4.4242   -3.8058 H   0  0  0  0  0  0
   -5.1347    4.2418  -15.1916 H   0  0  0  0  0  0
   -4.7850    5.7836   -9.1280 H   0  0  0  0  0  0
  1  2  1  0  0  0
  2  3  1  0  0  0
  3  4  1  0  0  0
  4  5  1  0  0  0
  5  6  1  0  0  0
  5  7  1  0  0  0
  7  8  1  0  0  0
  7 39  1  0  0  0
  8  9  1  0  0  0
  8 27  1  0  0  0
  9 10  1  0  0  0
 10 11  1  0  0  0
 10 12  1  0  0  0
 12 13  1  0  0  0
 13 14  1  0  0  0
 13 26  1  0  0  0
 14 15  1  0  0  0
 15 16  1  0  0  0
 16 17  1  0  0  0
 17 18  1  0  0  0
 18 19  1  0  0  0
 18 25  1  0  0  0
 19 20  1  0  0  0
 20 21  1  0  0  0
 20 24  1  0  0  0
 21 22  1  0  0  0
 21 23  1  0  0  0
 23 51  1  0  0  0
 23 52  1  0  0  0
 24 53  1  0  0  0
 25 54  1  0  0  0
 26 55  1  0  0  0
 27 28  1  0  0  0
 28 29  2  0  0  0
 28 30  1  0  0  0
 30 31  1  0  0  0
 31 32  1  0  0  0
 31 36  1  0  0  0
 32 33  1  0  0  0
 33 34  2  0  0  0
 33 35  1  0  0  0
 35 56  1  0  0  0
 36 37  2  0  0  0
 36 38  1  0  0  0
 38 57  1  0  0  0
 39 40  1  0  0  0
 40 41  2  0  0  0
 40 42  1  0  0  0
 42 43  1  0  0  0
 43 44  1  0  0  0
 43 48  1  0  0  0
 44 45  1  0  0  0
 45 46  2  0  0  0
 45 47  1  0  0  0
 47 58  1  0  0  0
 48 49  2  0  0  0
 48 50  1  0  0  0
 50 59  1  0  0  0
M  END
>  <AUTHOR>
    GENERATED BY OPEN BABEL 2.4.1

>  <CHROM.1>
-165.96126656,-59.40965595,-47.21292206,-115.28113406,164.49084742,78.16721556
-84.23101183,143.82999054,64.89946730,-148.38940682,64.54399863,63.24419742
-41.59109018,154.51993624,169.92965554,175.98676302,39.62057164,154.77485098
-73.31673884,-58.27204768,-165.76829932,77.31065360,-80.68567374,14.18526456
90.35382141,73.26626746,-161.53140807,101.14223753,-80.03096044,-1.91412621
-169.40257489,3.46307400,-54.10408699,165.50011642,-86.22730819,-156.14778313
-68.69751574,-15.32379655,-170.28995319,-2.84421818,2.91650752,-10.47867424
1.63107832,1.20235903,2.80445251

>  <COMPND>
    UNNAMED

>  <MASTER>
        0    0    0    0    0    0    0    0  109    0  109    0

>  <Name>
FB1.pdb

>  <RI>
0

>  <Rbt.Current_Directory>
/home/fc/tossine/FB1_39/p3/3_clust03

>  <Rbt.Executable>
rbdock/0.1.0

>  <Rbt.Library>
librxdock.so/0.1.0

>  <Rbt.Parameter_File>
/cluster/rxdock/data/scripts/dock.prm

>  <Rbt.Receptor>
rx_4.prm

>  <SCORE>
27.7713

>  <SCORE.INTER>
13.4233

>  <SCORE.INTER.CONST>
1

>  <SCORE.INTER.POLAR>
-1.73651

>  <SCORE.INTER.REPUL>
1.24474

>  <SCORE.INTER.ROT>
32

>  <SCORE.INTER.VDW>
-24.2963

>  <SCORE.INTER.norm>
0.268465

>  <SCORE.INTRA>
10.0505

>  <SCORE.INTRA.DIHEDRAL>
5.15514

>  <SCORE.INTRA.DIHEDRAL.0>
47.3121

>  <SCORE.INTRA.POLAR>
0.748519

>  <SCORE.INTRA.POLAR.0>
-1.47808

>  <SCORE.INTRA.REPUL>
0

>  <SCORE.INTRA.REPUL.0>
0

>  <SCORE.INTRA.VDW>
4.92795

>  <SCORE.INTRA.VDW.0>
-2.78316

>  <SCORE.INTRA.norm>
0.20101

>  <SCORE.RESTR>
4.29756

>  <SCORE.RESTR.CAVITY>
4.29756

>  <SCORE.RESTR.norm>
0.0859513

>  <SCORE.SYSTEM>
0

>  <SCORE.SYSTEM.CONST>
0

>  <SCORE.SYSTEM.DIHEDRAL>
0

>  <SCORE.SYSTEM.norm>
0

>  <SCORE.heavy>
50

>  <SCORE.norm>
0.555426

$$$$
