FB1.pdb
  RxDock  10072015113D
librxdock.so/0.1.0
 59 58  0  0  0  0  0  0  0  0999 V2000
   -6.7305   -3.3445  -15.6735 C   0  0  0  0  0  0
   -6.0873   -3.1936  -14.2969 C   0  0  0  0  0  0
   -6.1412   -1.7396  -13.7996 C   0  0  0  0  0  0
   -5.1142   -1.4309  -12.6817 C   0  0  0  0  0  0
   -5.5104   -1.9535  -11.2567 C   0  0  0  0  0  0
   -5.1081   -3.4430  -11.1567 C   0  0  0  0  0  0
   -4.8705   -1.1121  -10.0732 C   0  0  0  0  0  0
   -3.2730   -1.1249   -9.9548 C   0  0  0  0  0  0
   -2.3739   -2.4319   -9.8470 C   0  0  0  0  0  0
   -2.7678   -3.4518   -8.6116 C   0  0  0  0  0  0
   -2.0800   -4.7945   -8.8531 C   0  0  0  0  0  0
   -2.4322   -2.9360   -7.1399 C   0  0  0  0  0  0
   -3.0044   -3.6158   -5.7874 C   0  0  0  0  0  0
   -2.6923   -3.0431   -4.3623 C   0  0  0  0  0  0
   -1.2202   -3.2348   -3.7748 C   0  0  0  0  0  0
   -0.8876   -3.3672   -2.2365 C   0  0  0  0  0  0
   -0.8942   -4.7686   -1.5706 C   0  0  0  0  0  0
    0.4655   -5.5685   -1.5966 C   0  0  0  0  0  0
    1.2680   -5.5868   -0.2896 C   0  0  0  0  0  0
    1.5731   -4.2306    0.4074 C   0  0  0  0  0  0
    0.6526   -3.7017    1.5468 C   0  0  0  0  0  0
    0.9530   -2.3026    2.0661 C   0  0  0  0  0  0
   -0.7695   -3.8329    1.1771 N   0  0  0  0  0  0
    2.8695   -4.4205    1.0297 O   0  0  0  0  0  0
    0.1761   -6.9195   -1.9715 O   0  0  0  0  0  0
   -4.4346   -3.5457   -5.9151 O   0  0  0  0  0  0
   -2.7726   -0.4404  -11.1353 O   0  0  0  0  0  0
   -1.5315    0.1056  -11.0520 C   0  0  0  0  0  0
   -0.7121   -0.1004  -10.1770 O   0  0  0  0  0  0
   -1.2936    0.9366  -12.2826 C   0  0  0  0  0  0
   -2.2402    2.1442  -12.3715 C   0  0  0  0  0  0
   -2.6009    2.7123  -10.9929 C   0  0  0  0  0  0
   -3.9927    3.3007  -10.9929 C   0  0  0  0  0  0
   -4.5340    3.7622  -11.9918 O   0  0  0  0  0  0
   -4.5861    3.2695   -9.7905 O   0  0  0  0  0  0
   -1.4969    3.2029  -13.1978 C   0  0  0  0  0  0
   -1.9255    3.6485  -14.2514 O   0  0  0  0  0  0
   -0.3097    3.5653  -12.6927 O   0  0  0  0  0  0
   -5.4179    0.2659  -10.0391 O   0  0  0  0  0  0
   -6.7690    0.4323   -9.7846 C   0  0  0  0  0  0
   -7.5755   -0.4824   -9.6789 O   0  0  0  0  0  0
   -7.1592    1.9097   -9.6453 C   0  0  0  0  0  0
   -7.6494    2.6070  -10.9522 C   0  0  0  0  0  0
   -8.8270    1.9711  -11.7134 C   0  0  0  0  0  0
   -8.4076    0.8312  -12.5962 C   0  0  0  0  0  0
   -8.3537   -0.3452  -12.2652 O   0  0  0  0  0  0
   -8.1016    1.2311  -13.8399 O   0  0  0  0  0  0
   -7.9628    4.1005  -10.7991 C   0  0  0  0  0  0
   -8.9089    4.5143  -10.1584 O   0  0  0  0  0  0
   -7.0540    4.9413  -11.3361 O   0  0  0  0  0  0
   -1.2129   -2.9165    1.2245 H   0  0  0  0  0  0
   -1.2425   -4.3916    1.8910 H   0  0  0  0  0  0
    3.1104   -3.5344    1.3732 H   0  0  0  0  0  0
   -0.4636   -6.9007   -2.7070 H   0  0  0  0  0  0
   -4.6853   -3.9949   -6.7395 H   0  0  0  0  0  0
   -4.0412    2.9058   -9.0664 H   0  0  0  0  0  0
   -0.0331    3.0571  -11.8902 H   0  0  0  0  0  0
   -7.8052    0.4335  -14.3270 H   0  0  0  0  0  0
   -6.3463    4.5115  -11.8658 H   0  0  0  0  0  0
  1  2  1  0  0  0
  2  3  1  0  0  0
  3  4  1  0  0  0
  4  5  1  0  0  0
  5  6  1  0  0  0
  5  7  1  0  0  0
  7  8  1  0  0  0
  7 39  1  0  0  0
  8  9  1  0  0  0
  8 27  1  0  0  0
  9 10  1  0  0  0
 10 11  1  0  0  0
 10 12  1  0  0  0
 12 13  1  0  0  0
 13 14  1  0  0  0
 13 26  1  0  0  0
 14 15  1  0  0  0
 15 16  1  0  0  0
 16 17  1  0  0  0
 17 18  1  0  0  0
 18 19  1  0  0  0
 18 25  1  0  0  0
 19 20  1  0  0  0
 20 21  1  0  0  0
 20 24  1  0  0  0
 21 22  1  0  0  0
 21 23  1  0  0  0
 23 51  1  0  0  0
 23 52  1  0  0  0
 24 53  1  0  0  0
 25 54  1  0  0  0
 26 55  1  0  0  0
 27 28  1  0  0  0
 28 29  2  0  0  0
 28 30  1  0  0  0
 30 31  1  0  0  0
 31 32  1  0  0  0
 31 36  1  0  0  0
 32 33  1  0  0  0
 33 34  2  0  0  0
 33 35  1  0  0  0
 35 56  1  0  0  0
 36 37  2  0  0  0
 36 38  1  0  0  0
 38 57  1  0  0  0
 39 40  1  0  0  0
 40 41  2  0  0  0
 40 42  1  0  0  0
 42 43  1  0  0  0
 43 44  1  0  0  0
 43 48  1  0  0  0
 44 45  1  0  0  0
 45 46  2  0  0  0
 45 47  1  0  0  0
 47 58  1  0  0  0
 48 49  2  0  0  0
 48 50  1  0  0  0
 50 59  1  0  0  0
M  END
>  <AUTHOR>
    GENERATED BY OPEN BABEL 2.4.1

>  <CHROM.1>
-160.28068120,-77.46408443,82.97730025,-63.64914281,-55.02795308,63.62167177
-55.28541334,156.66320824,165.54196331,166.55554421,-177.63510406,-72.59416296
56.80262449,-149.96882079,88.82273146,89.08286288,102.69361585,-51.58657930
43.17452275,95.23418933,-173.97157156,173.23491936,-122.92363991,12.76025538
64.86669722,32.96505520,-148.55863601,119.98115977,-27.62315572,2.13169638
4.33554832,-5.56221843,92.82646680,55.35893094,-81.64909459,-69.23055923
90.14532577,177.61785870,7.33918005,-3.56774910,-0.81238036,-8.55079014,2.34465622
-0.91701050,-0.43839364

>  <COMPND>
    UNNAMED

>  <MASTER>
        0    0    0    0    0    0    0    0  109    0  109    0

>  <Name>
FB1.pdb

>  <RI>
0

>  <Rbt.Current_Directory>
/home/fc/tossine/FB1_39/p3/3_clust03

>  <Rbt.Executable>
rbdock/0.1.0

>  <Rbt.Library>
librxdock.so/0.1.0

>  <Rbt.Parameter_File>
/cluster/rxdock/data/scripts/dock.prm

>  <Rbt.Receptor>
rx_0.prm

>  <SCORE>
9.65084

>  <SCORE.INTER>
8.15372

>  <SCORE.INTER.CONST>
1

>  <SCORE.INTER.POLAR>
-3.08359

>  <SCORE.INTER.REPUL>
0.295965

>  <SCORE.INTER.ROT>
32

>  <SCORE.INTER.VDW>
-20.2419

>  <SCORE.INTER.norm>
0.163074

>  <SCORE.INTRA>
1.34734

>  <SCORE.INTRA.DIHEDRAL>
4.92278

>  <SCORE.INTRA.DIHEDRAL.0>
47.3121

>  <SCORE.INTRA.POLAR>
0.486902

>  <SCORE.INTRA.POLAR.0>
-1.47808

>  <SCORE.INTRA.REPUL>
0

>  <SCORE.INTRA.REPUL.0>
0

>  <SCORE.INTRA.VDW>
-2.76952

>  <SCORE.INTRA.VDW.0>
-2.78316

>  <SCORE.INTRA.norm>
0.0269467

>  <SCORE.RESTR>
0.149782

>  <SCORE.RESTR.CAVITY>
0.149782

>  <SCORE.RESTR.norm>
0.00299563

>  <SCORE.SYSTEM>
0

>  <SCORE.SYSTEM.CONST>
0

>  <SCORE.SYSTEM.DIHEDRAL>
0

>  <SCORE.SYSTEM.norm>
0

>  <SCORE.heavy>
50

>  <SCORE.norm>
0.193017

$$$$
