FB1.pdb
  RxDock  10062022593D
librxdock.so/0.1.0
 59 58  0  0  0  0  0  0  0  0999 V2000
  -11.0200   -2.1332   -9.0806 C   0  0  0  0  0  0
   -9.8079   -2.8070   -8.4419 C   0  0  0  0  0  0
   -9.9817   -2.9699   -6.9228 C   0  0  0  0  0  0
   -9.9061   -1.6320   -6.1457 C   0  0  0  0  0  0
   -9.7020   -1.7770   -4.5972 C   0  0  0  0  0  0
  -10.9968   -2.3642   -3.9897 C   0  0  0  0  0  0
   -8.4411   -2.6566   -4.2044 C   0  0  0  0  0  0
   -7.3032   -2.8320   -5.3181 C   0  0  0  0  0  0
   -6.3614   -1.6689   -5.8551 C   0  0  0  0  0  0
   -6.3847   -1.4484   -7.4898 C   0  0  0  0  0  0
   -6.2302    0.0435   -7.7803 C   0  0  0  0  0  0
   -5.3033   -2.2709   -8.3257 C   0  0  0  0  0  0
   -3.7257   -2.3194   -7.9690 C   0  0  0  0  0  0
   -3.1661   -3.1159   -6.7407 C   0  0  0  0  0  0
   -3.5218   -4.6676   -6.6185 C   0  0  0  0  0  0
   -3.5414   -5.6734   -7.8361 C   0  0  0  0  0  0
   -4.8783   -6.3392   -8.2565 C   0  0  0  0  0  0
   -6.0345   -5.3701   -8.7184 C   0  0  0  0  0  0
   -5.9058   -4.7830  -10.1295 C   0  0  0  0  0  0
   -6.1090   -5.7321  -11.3444 C   0  0  0  0  0  0
   -7.5347   -6.2203  -11.7374 C   0  0  0  0  0  0
   -7.7265   -7.7258  -11.8564 C   0  0  0  0  0  0
   -8.5557   -5.6269  -10.8532 N   0  0  0  0  0  0
   -5.6445   -4.9702  -12.4879 O   0  0  0  0  0  0
   -7.2712   -6.0867   -8.6350 O   0  0  0  0  0  0
   -3.1050   -2.9186   -9.1190 O   0  0  0  0  0  0
   -6.3823   -3.8322   -4.8042 O   0  0  0  0  0  0
   -6.7398   -5.1343   -4.9532 C   0  0  0  0  0  0
   -7.7115   -5.5491   -5.5558 O   0  0  0  0  0  0
   -5.6742   -5.9945   -4.3320 C   0  0  0  0  0  0
   -4.7325   -5.1978   -3.4150 C   0  0  0  0  0  0
   -4.9153   -5.5513   -1.9334 C   0  0  0  0  0  0
   -5.8966   -4.6154   -1.2667 C   0  0  0  0  0  0
   -5.6904   -4.0740   -0.1859 O   0  0  0  0  0  0
   -7.0216   -4.4291   -1.9729 O   0  0  0  0  0  0
   -3.3080   -5.5479   -3.8666 C   0  0  0  0  0  0
   -2.4609   -4.7036   -4.1159 O   0  0  0  0  0  0
   -3.0814   -6.8605   -4.0139 O   0  0  0  0  0  0
   -7.8785   -2.2331   -2.8990 O   0  0  0  0  0  0
   -8.7115   -2.2286   -1.7926 C   0  0  0  0  0  0
   -9.5389   -3.0948   -1.5404 O   0  0  0  0  0  0
   -8.4863   -1.0031   -0.8972 C   0  0  0  0  0  0
   -7.3375   -1.1318    0.1507 C   0  0  0  0  0  0
   -5.9536   -0.5684   -0.2203 C   0  0  0  0  0  0
   -5.1002   -1.5530   -0.9665 C   0  0  0  0  0  0
   -3.9748   -1.9092   -0.6453 O   0  0  0  0  0  0
   -5.7142   -2.0434   -2.0541 O   0  0  0  0  0  0
   -7.6845   -0.5981    1.5461 C   0  0  0  0  0  0
   -7.5381   -1.2535    2.5589 O   0  0  0  0  0  0
   -8.0666    0.6953    1.5932 O   0  0  0  0  0  0
   -9.4816   -5.8410  -11.2212 H   0  0  0  0  0  0
   -8.4807   -4.6085  -10.9050 H   0  0  0  0  0  0
   -4.9099   -5.5038  -12.8579 H   0  0  0  0  0  0
   -7.9833   -5.5027   -8.9550 H   0  0  0  0  0  0
   -2.2819   -2.4357   -9.3023 H   0  0  0  0  0  0
   -6.9822   -3.7159   -2.6386 H   0  0  0  0  0  0
   -3.7848   -7.4432   -3.6338 H   0  0  0  0  0  0
   -5.0398   -2.5510   -2.5530 H   0  0  0  0  0  0
   -8.1924    1.1279    0.7195 H   0  0  0  0  0  0
  1  2  1  0  0  0
  2  3  1  0  0  0
  3  4  1  0  0  0
  4  5  1  0  0  0
  5  6  1  0  0  0
  5  7  1  0  0  0
  7  8  1  0  0  0
  7 39  1  0  0  0
  8  9  1  0  0  0
  8 27  1  0  0  0
  9 10  1  0  0  0
 10 11  1  0  0  0
 10 12  1  0  0  0
 12 13  1  0  0  0
 13 14  1  0  0  0
 13 26  1  0  0  0
 14 15  1  0  0  0
 15 16  1  0  0  0
 16 17  1  0  0  0
 17 18  1  0  0  0
 18 19  1  0  0  0
 18 25  1  0  0  0
 19 20  1  0  0  0
 20 21  1  0  0  0
 20 24  1  0  0  0
 21 22  1  0  0  0
 21 23  1  0  0  0
 23 51  1  0  0  0
 23 52  1  0  0  0
 24 53  1  0  0  0
 25 54  1  0  0  0
 26 55  1  0  0  0
 27 28  1  0  0  0
 28 29  2  0  0  0
 28 30  1  0  0  0
 30 31  1  0  0  0
 31 32  1  0  0  0
 31 36  1  0  0  0
 32 33  1  0  0  0
 33 34  2  0  0  0
 33 35  1  0  0  0
 35 56  1  0  0  0
 36 37  2  0  0  0
 36 38  1  0  0  0
 38 57  1  0  0  0
 39 40  1  0  0  0
 40 41  2  0  0  0
 40 42  1  0  0  0
 42 43  1  0  0  0
 43 44  1  0  0  0
 43 48  1  0  0  0
 44 45  1  0  0  0
 45 46  2  0  0  0
 45 47  1  0  0  0
 47 58  1  0  0  0
 48 49  2  0  0  0
 48 50  1  0  0  0
 50 59  1  0  0  0
M  END
>  <AUTHOR>
    GENERATED BY OPEN BABEL 2.4.1

>  <CHROM.1>
-70.79703036,-164.73621672,-69.30750994,20.72195575,67.48462839,56.41442295
-124.56892911,81.07113190,145.04218949,-49.41711990,72.74504832,55.07310452
138.64319139,40.68420504,-115.61534443,61.04713529,76.63159475,70.73520425
-177.68213159,74.27099898,-126.15283116,119.79986594,171.01988555,5.40463613
15.23362170,110.52633172,-93.19584227,129.39372131,-132.99326880,-86.92055471
-12.40861895,40.77003091,-85.05782240,95.74606218,-86.84163287,127.71349258
-125.02894694,170.71065579,7.40596644,-6.54915366,-3.50040188,-5.13173452
1.50059976,0.45172102,-1.85711598

>  <COMPND>
    UNNAMED

>  <MASTER>
        0    0    0    0    0    0    0    0  109    0  109    0

>  <Name>
FB1.pdb

>  <RI>
0

>  <Rbt.Current_Directory>
/home/fc/tossine/FB1_39/p3/0_clust04

>  <Rbt.Executable>
rbdock/0.1.0

>  <Rbt.Library>
librxdock.so/0.1.0

>  <Rbt.Parameter_File>
/cluster/rxdock/data/scripts/dock.prm

>  <Rbt.Receptor>
rx_4.prm

>  <SCORE>
64.1195

>  <SCORE.INTER>
30.284

>  <SCORE.INTER.CONST>
1

>  <SCORE.INTER.POLAR>
-2.3288

>  <SCORE.INTER.REPUL>
0.977598

>  <SCORE.INTER.ROT>
32

>  <SCORE.INTER.VDW>
-4.08607

>  <SCORE.INTER.norm>
0.60568

>  <SCORE.INTRA>
28.441

>  <SCORE.INTRA.DIHEDRAL>
56.5362

>  <SCORE.INTRA.DIHEDRAL.0>
47.3121

>  <SCORE.INTRA.POLAR>
0.179804

>  <SCORE.INTRA.POLAR.0>
-1.47808

>  <SCORE.INTRA.REPUL>
1.01305

>  <SCORE.INTRA.REPUL.0>
0

>  <SCORE.INTRA.VDW>
-5.5037

>  <SCORE.INTRA.VDW.0>
-2.78316

>  <SCORE.INTRA.norm>
0.568819

>  <SCORE.RESTR>
5.39451

>  <SCORE.RESTR.CAVITY>
5.39451

>  <SCORE.RESTR.norm>
0.10789

>  <SCORE.SYSTEM>
0

>  <SCORE.SYSTEM.CONST>
0

>  <SCORE.SYSTEM.DIHEDRAL>
0

>  <SCORE.SYSTEM.norm>
0

>  <SCORE.heavy>
50

>  <SCORE.norm>
1.28239

$$$$
