FB1.pdb
  RxDock  10062021013D
librxdock.so/0.1.0
 59 58  0  0  0  0  0  0  0  0999 V2000
   -6.6095   -8.2814  -17.3464 C   0  0  0  0  0  0
   -6.5971   -9.2339  -16.1532 C   0  0  0  0  0  0
   -6.4736   -8.4762  -14.8209 C   0  0  0  0  0  0
   -7.7443   -7.6730  -14.4471 C   0  0  0  0  0  0
   -9.0284   -8.5410  -14.2058 C   0  0  0  0  0  0
   -8.7645   -9.4740  -13.0014 C   0  0  0  0  0  0
  -10.3416   -7.6797  -13.9793 C   0  0  0  0  0  0
  -10.3732   -6.7300  -12.6896 C   0  0  0  0  0  0
   -9.1088   -6.3449  -11.8058 C   0  0  0  0  0  0
   -8.2808   -5.0112  -12.3130 C   0  0  0  0  0  0
   -8.6438   -3.8395  -11.4023 C   0  0  0  0  0  0
   -6.6941   -5.1563  -12.3912 C   0  0  0  0  0  0
   -5.8036   -5.9761  -11.3171 C   0  0  0  0  0  0
   -4.9495   -5.2617  -10.2143 C   0  0  0  0  0  0
   -5.6599   -4.8765   -8.8374 C   0  0  0  0  0  0
   -5.3996   -3.5332   -8.0485 C   0  0  0  0  0  0
   -5.1904   -3.5772   -6.5117 C   0  0  0  0  0  0
   -5.9253   -4.7356   -5.7325 C   0  0  0  0  0  0
   -5.5643   -4.8928   -4.2501 C   0  0  0  0  0  0
   -6.2447   -3.9460   -3.2211 C   0  0  0  0  0  0
   -7.7731   -4.0498   -2.9403 C   0  0  0  0  0  0
   -8.2438   -5.2971   -2.2055 C   0  0  0  0  0  0
   -8.2698   -2.8286   -2.2782 N   0  0  0  0  0  0
   -5.6085   -4.2599   -1.9560 O   0  0  0  0  0  0
   -7.3356   -4.5119   -5.8359 O   0  0  0  0  0  0
   -6.7476   -6.7851  -10.5952 O   0  0  0  0  0  0
  -10.9010   -5.4524  -13.1386 O   0  0  0  0  0  0
  -10.2870   -4.8705  -14.2015 C   0  0  0  0  0  0
   -9.1989   -5.1688  -14.6556 O   0  0  0  0  0  0
  -11.2239   -3.8547  -14.7948 C   0  0  0  0  0  0
  -10.5404   -2.9633  -15.8439 C   0  0  0  0  0  0
  -11.4801   -2.5830  -16.9953 C   0  0  0  0  0  0
  -11.8847   -3.8006  -17.7935 C   0  0  0  0  0  0
  -11.2822   -4.8679  -17.7548 O   0  0  0  0  0  0
  -12.9730   -3.6045  -18.5526 O   0  0  0  0  0  0
  -10.0890   -1.7014  -15.0957 C   0  0  0  0  0  0
   -8.9214   -1.4716  -14.8194 O   0  0  0  0  0  0
  -11.0897   -0.8910  -14.7242 O   0  0  0  0  0  0
  -10.7237   -6.9512  -15.2135 O   0  0  0  0  0  0
  -10.6548   -7.6224  -16.4230 C   0  0  0  0  0  0
  -11.2874   -8.6346  -16.6947 O   0  0  0  0  0  0
   -9.6861   -6.9540  -17.4073 C   0  0  0  0  0  0
   -9.8202   -7.3983  -18.8970 C   0  0  0  0  0  0
   -9.4195   -6.3918  -19.9910 C   0  0  0  0  0  0
   -9.1102   -5.0268  -19.4473 C   0  0  0  0  0  0
   -9.6654   -3.9865  -19.7728 O   0  0  0  0  0  0
   -8.1418   -5.0515  -18.5189 O   0  0  0  0  0  0
   -9.1316   -8.7276  -19.2304 C   0  0  0  0  0  0
   -8.1915   -8.8104  -19.9959 O   0  0  0  0  0  0
   -9.5688   -9.7974  -18.5334 O   0  0  0  0  0  0
   -8.1305   -2.0321   -2.8984 H   0  0  0  0  0  0
   -7.6809   -2.6354   -1.4650 H   0  0  0  0  0  0
   -6.0845   -3.7111   -1.2976 H   0  0  0  0  0  0
   -7.5734   -4.5007   -6.7813 H   0  0  0  0  0  0
   -6.2484   -7.4267  -10.0627 H   0  0  0  0  0  0
  -13.1659   -4.3138  -19.1953 H   0  0  0  0  0  0
  -11.9909   -1.2075  -14.9820 H   0  0  0  0  0  0
   -8.0931   -4.1489  -18.1391 H   0  0  0  0  0  0
   -9.1038  -10.6418  -18.7252 H   0  0  0  0  0  0
  1  2  1  0  0  0
  2  3  1  0  0  0
  3  4  1  0  0  0
  4  5  1  0  0  0
  5  6  1  0  0  0
  5  7  1  0  0  0
  7  8  1  0  0  0
  7 39  1  0  0  0
  8  9  1  0  0  0
  8 27  1  0  0  0
  9 10  1  0  0  0
 10 11  1  0  0  0
 10 12  1  0  0  0
 12 13  1  0  0  0
 13 14  1  0  0  0
 13 26  1  0  0  0
 14 15  1  0  0  0
 15 16  1  0  0  0
 16 17  1  0  0  0
 17 18  1  0  0  0
 18 19  1  0  0  0
 18 25  1  0  0  0
 19 20  1  0  0  0
 20 21  1  0  0  0
 20 24  1  0  0  0
 21 22  1  0  0  0
 21 23  1  0  0  0
 23 51  1  0  0  0
 23 52  1  0  0  0
 24 53  1  0  0  0
 25 54  1  0  0  0
 26 55  1  0  0  0
 27 28  1  0  0  0
 28 29  2  0  0  0
 28 30  1  0  0  0
 30 31  1  0  0  0
 31 32  1  0  0  0
 31 36  1  0  0  0
 32 33  1  0  0  0
 33 34  2  0  0  0
 33 35  1  0  0  0
 35 56  1  0  0  0
 36 37  2  0  0  0
 36 38  1  0  0  0
 38 57  1  0  0  0
 39 40  1  0  0  0
 40 41  2  0  0  0
 40 42  1  0  0  0
 42 43  1  0  0  0
 43 44  1  0  0  0
 43 48  1  0  0  0
 44 45  1  0  0  0
 45 46  2  0  0  0
 45 47  1  0  0  0
 47 58  1  0  0  0
 48 49  2  0  0  0
 48 50  1  0  0  0
 50 59  1  0  0  0
M  END
>  <AUTHOR>
    GENERATED BY OPEN BABEL 2.4.1

>  <CHROM.1>
70.16231644,63.32067369,62.51347131,-63.17558571,13.82075695,42.91812357
88.28370503,-53.24668715,103.02521807,-38.11909820,-103.69587851,86.22267367
168.74125373,-140.56492601,-135.15751647,-29.86814133,171.86428050,80.78629231
58.66101361,67.44482815,69.48745078,-175.90034928,62.13242058,-15.05442519
169.77483444,144.92619067,-64.98137691,106.56427991,-17.76346283,169.61859843
-0.19250370,60.23840672,-164.38056234,151.82652449,-7.40364642,-115.47746883
-122.25302579,-172.55375782,-177.87510557,-8.65986989,-5.53864425,-13.12142391
-2.04094718,-1.01849093,1.01766599

>  <COMPND>
    UNNAMED

>  <MASTER>
        0    0    0    0    0    0    0    0  109    0  109    0

>  <Name>
FB1.pdb

>  <RI>
0

>  <Rbt.Current_Directory>
/home/fc/tossine/FB1_39/p3/0_clust04

>  <Rbt.Executable>
rbdock/0.1.0

>  <Rbt.Library>
librxdock.so/0.1.0

>  <Rbt.Parameter_File>
/cluster/rxdock/data/scripts/dock.prm

>  <Rbt.Receptor>
rx_1.prm

>  <SCORE>
35.0175

>  <SCORE.INTER>
3.71223

>  <SCORE.INTER.CONST>
1

>  <SCORE.INTER.POLAR>
-2.43144

>  <SCORE.INTER.REPUL>
0.468163

>  <SCORE.INTER.ROT>
32

>  <SCORE.INTER.VDW>
-27.7617

>  <SCORE.INTER.norm>
0.0742446

>  <SCORE.INTRA>
29.8534

>  <SCORE.INTRA.DIHEDRAL>
31.8846

>  <SCORE.INTRA.DIHEDRAL.0>
47.3121

>  <SCORE.INTRA.POLAR>
1.47808

>  <SCORE.INTRA.POLAR.0>
-1.47808

>  <SCORE.INTRA.REPUL>
0.131889

>  <SCORE.INTRA.REPUL.0>
0

>  <SCORE.INTRA.VDW>
8.22617

>  <SCORE.INTRA.VDW.0>
-2.78316

>  <SCORE.INTRA.norm>
0.597068

>  <SCORE.RESTR>
1.45184

>  <SCORE.RESTR.CAVITY>
1.45184

>  <SCORE.RESTR.norm>
0.0290369

>  <SCORE.SYSTEM>
0

>  <SCORE.SYSTEM.CONST>
0

>  <SCORE.SYSTEM.DIHEDRAL>
0

>  <SCORE.SYSTEM.norm>
0

>  <SCORE.heavy>
50

>  <SCORE.norm>
0.700349

$$$$
