FB1.pdb
  RxDock  10062022273D
librxdock.so/0.1.0
 59 58  0  0  0  0  0  0  0  0999 V2000
   -8.4877   -6.9928  -13.6971 C   0  0  0  0  0  0
   -8.2016   -8.1028  -12.6884 C   0  0  0  0  0  0
   -7.0599   -7.7221  -11.7314 C   0  0  0  0  0  0
   -7.3654   -6.4694  -10.8730 C   0  0  0  0  0  0
   -6.1022   -5.7278  -10.3119 C   0  0  0  0  0  0
   -5.0871   -5.5570  -11.4656 C   0  0  0  0  0  0
   -6.4356   -4.3305   -9.6379 C   0  0  0  0  0  0
   -7.9575   -4.0775   -9.2066 C   0  0  0  0  0  0
   -8.4682   -3.9063   -7.7106 C   0  0  0  0  0  0
   -9.8147   -2.9697   -7.5340 C   0  0  0  0  0  0
  -10.9129   -3.5232   -8.4405 C   0  0  0  0  0  0
  -10.3744   -2.8162   -6.0481 C   0  0  0  0  0  0
  -10.9682   -1.4393   -5.4397 C   0  0  0  0  0  0
  -10.6155   -0.9369   -3.9977 C   0  0  0  0  0  0
   -9.9471   -1.9685   -2.9787 C   0  0  0  0  0  0
   -9.5426   -1.6148   -1.4935 C   0  0  0  0  0  0
   -8.6257   -2.5826   -0.6996 C   0  0  0  0  0  0
   -7.0754   -2.4643   -0.9670 C   0  0  0  0  0  0
   -6.6097   -2.7468   -2.4008 C   0  0  0  0  0  0
   -6.0889   -4.1724   -2.7395 C   0  0  0  0  0  0
   -4.9058   -4.7935   -1.9396 C   0  0  0  0  0  0
   -5.2335   -5.3319   -0.5540 C   0  0  0  0  0  0
   -4.2010   -5.8078   -2.7464 N   0  0  0  0  0  0
   -7.2169   -5.0469   -2.4811 O   0  0  0  0  0  0
   -6.6650   -1.1405   -0.6081 O   0  0  0  0  0  0
  -10.4923   -0.4095   -6.3226 O   0  0  0  0  0  0
   -8.3695   -2.8517   -9.8700 O   0  0  0  0  0  0
   -8.5120   -2.8989  -11.2201 C   0  0  0  0  0  0
   -8.0451   -3.7405  -11.9638 O   0  0  0  0  0  0
   -9.4339   -1.7877  -11.6404 C   0  0  0  0  0  0
  -10.7741   -2.3068  -12.1853 C   0  0  0  0  0  0
  -11.8585   -1.2220  -12.2121 C   0  0  0  0  0  0
  -12.6979   -1.2592  -10.9562 C   0  0  0  0  0  0
  -13.8174   -1.7567  -10.9030 O   0  0  0  0  0  0
  -12.0996   -0.6947   -9.8968 O   0  0  0  0  0  0
  -10.4878   -2.7987  -13.6108 C   0  0  0  0  0  0
  -10.7830   -3.9177  -14.0021 O   0  0  0  0  0  0
   -9.8400   -1.9141  -14.3814 O   0  0  0  0  0  0
   -5.4897   -4.0282   -8.5362 O   0  0  0  0  0  0
   -5.3350   -2.7090   -8.1437 C   0  0  0  0  0  0
   -5.9569   -1.7652   -8.6135 O   0  0  0  0  0  0
   -4.2840   -2.5485   -7.0373 C   0  0  0  0  0  0
   -4.7289   -2.9963   -5.6104 C   0  0  0  0  0  0
   -5.3297   -4.4047   -5.4487 C   0  0  0  0  0  0
   -6.8285   -4.3963   -5.3599 C   0  0  0  0  0  0
   -7.5226   -3.4224   -5.1026 O   0  0  0  0  0  0
   -7.3645   -5.5992   -5.6168 O   0  0  0  0  0  0
   -3.6546   -2.8352   -4.5277 C   0  0  0  0  0  0
   -2.6735   -3.5490   -4.4596 O   0  0  0  0  0  0
   -3.8116   -1.7738   -3.7092 O   0  0  0  0  0  0
   -4.8718   -6.2768   -3.3536 H   0  0  0  0  0  0
   -3.8549   -6.5394   -2.1216 H   0  0  0  0  0  0
   -7.4552   -4.8724   -1.5462 H   0  0  0  0  0  0
   -5.9712   -0.8574   -1.2319 H   0  0  0  0  0  0
   -9.5358   -0.5340   -6.4418 H   0  0  0  0  0  0
  -11.1878   -0.3812  -10.0513 H   0  0  0  0  0  0
   -9.4853   -2.2883  -15.2258 H   0  0  0  0  0  0
   -6.8280   -6.2569   -5.1260 H   0  0  0  0  0  0
   -4.6444   -1.2668   -3.8344 H   0  0  0  0  0  0
  1  2  1  0  0  0
  2  3  1  0  0  0
  3  4  1  0  0  0
  4  5  1  0  0  0
  5  6  1  0  0  0
  5  7  1  0  0  0
  7  8  1  0  0  0
  7 39  1  0  0  0
  8  9  1  0  0  0
  8 27  1  0  0  0
  9 10  1  0  0  0
 10 11  1  0  0  0
 10 12  1  0  0  0
 12 13  1  0  0  0
 13 14  1  0  0  0
 13 26  1  0  0  0
 14 15  1  0  0  0
 15 16  1  0  0  0
 16 17  1  0  0  0
 17 18  1  0  0  0
 18 19  1  0  0  0
 18 25  1  0  0  0
 19 20  1  0  0  0
 20 21  1  0  0  0
 20 24  1  0  0  0
 21 22  1  0  0  0
 21 23  1  0  0  0
 23 51  1  0  0  0
 23 52  1  0  0  0
 24 53  1  0  0  0
 25 54  1  0  0  0
 26 55  1  0  0  0
 27 28  1  0  0  0
 28 29  2  0  0  0
 28 30  1  0  0  0
 30 31  1  0  0  0
 31 32  1  0  0  0
 31 36  1  0  0  0
 32 33  1  0  0  0
 33 34  2  0  0  0
 33 35  1  0  0  0
 35 56  1  0  0  0
 36 37  2  0  0  0
 36 38  1  0  0  0
 38 57  1  0  0  0
 39 40  1  0  0  0
 40 41  2  0  0  0
 40 42  1  0  0  0
 42 43  1  0  0  0
 43 44  1  0  0  0
 43 48  1  0  0  0
 44 45  1  0  0  0
 45 46  2  0  0  0
 45 47  1  0  0  0
 47 58  1  0  0  0
 48 49  2  0  0  0
 48 50  1  0  0  0
 50 59  1  0  0  0
M  END
>  <AUTHOR>
    GENERATED BY OPEN BABEL 2.4.1

>  <CHROM.1>
61.50937683,-157.72881621,47.08956037,18.56623231,114.40682290,158.63901741
151.33484938,69.44465061,54.30980905,140.76799215,-136.65164005,-15.04223000
-49.58789529,-179.67140138,-166.55374605,81.78243690,-61.54309885,-96.34776516
-144.22124523,-56.63903075,77.09621396,-56.55459582,-33.12667648,-18.34765175
-112.41383493,162.54944892,-93.96596583,126.88784610,-101.74233094,-3.42458335
167.61309800,2.40108024,-75.31226685,51.85208842,-100.89434501,-71.97303702
-17.63133895,44.61891300,5.84768070,-7.88084976,-3.38796304,-7.37680726,-1.98893553
-0.54660990,1.31614025

>  <COMPND>
    UNNAMED

>  <MASTER>
        0    0    0    0    0    0    0    0  109    0  109    0

>  <Name>
FB1.pdb

>  <RI>
0

>  <Rbt.Current_Directory>
/home/fc/tossine/FB1_39/p3/0_clust04

>  <Rbt.Executable>
rbdock/0.1.0

>  <Rbt.Library>
librxdock.so/0.1.0

>  <Rbt.Parameter_File>
/cluster/rxdock/data/scripts/dock.prm

>  <Rbt.Receptor>
rx_3.prm

>  <SCORE>
38.8441

>  <SCORE.INTER>
7.12531

>  <SCORE.INTER.CONST>
1

>  <SCORE.INTER.POLAR>
-3.47973

>  <SCORE.INTER.REPUL>
1.40771

>  <SCORE.INTER.ROT>
32

>  <SCORE.INTER.VDW>
-25.4822

>  <SCORE.INTER.norm>
0.142506

>  <SCORE.INTRA>
26.2604

>  <SCORE.INTRA.DIHEDRAL>
34.2336

>  <SCORE.INTRA.DIHEDRAL.0>
47.3121

>  <SCORE.INTRA.POLAR>
1.47808

>  <SCORE.INTRA.POLAR.0>
-1.47808

>  <SCORE.INTRA.REPUL>
0.0878076

>  <SCORE.INTRA.REPUL.0>
0

>  <SCORE.INTRA.VDW>
3.67907

>  <SCORE.INTRA.VDW.0>
-2.78316

>  <SCORE.INTRA.norm>
0.525208

>  <SCORE.RESTR>
5.4584

>  <SCORE.RESTR.CAVITY>
5.4584

>  <SCORE.RESTR.norm>
0.109168

>  <SCORE.SYSTEM>
0

>  <SCORE.SYSTEM.CONST>
0

>  <SCORE.SYSTEM.DIHEDRAL>
0

>  <SCORE.SYSTEM.norm>
0

>  <SCORE.heavy>
50

>  <SCORE.norm>
0.776882

$$$$
