FB1.pdb
  RxDock  10062021493D
librxdock.so/0.1.0
 59 58  0  0  0  0  0  0  0  0999 V2000
   -1.8402   -3.4558   -8.9273 C   0  0  0  0  0  0
   -2.9400   -2.8967   -8.0277 C   0  0  0  0  0  0
   -4.0473   -2.2084   -8.8428 C   0  0  0  0  0  0
   -5.4768   -2.6374   -8.4280 C   0  0  0  0  0  0
   -6.0820   -1.8411   -7.2196 C   0  0  0  0  0  0
   -6.1294   -0.3432   -7.6002 C   0  0  0  0  0  0
   -7.5142   -2.3588   -6.7737 C   0  0  0  0  0  0
   -8.0739   -1.8261   -5.3705 C   0  0  0  0  0  0
   -9.4928   -2.1917   -4.7531 C   0  0  0  0  0  0
  -10.5665   -2.8576   -5.8138 C   0  0  0  0  0  0
  -11.9810   -2.4977   -5.3623 C   0  0  0  0  0  0
  -10.3775   -2.4615   -7.3474 C   0  0  0  0  0  0
  -11.5139   -2.6585   -8.4825 C   0  0  0  0  0  0
  -11.6957   -1.6550   -9.6724 C   0  0  0  0  0  0
  -10.9900   -1.9943  -11.0638 C   0  0  0  0  0  0
  -11.1540   -3.3642  -11.8326 C   0  0  0  0  0  0
  -10.9019   -3.4172  -13.3627 C   0  0  0  0  0  0
   -9.4542   -3.0264  -13.8532 C   0  0  0  0  0  0
   -8.6719   -4.1159  -14.5972 C   0  0  0  0  0  0
   -8.7594   -5.5764  -14.0706 C   0  0  0  0  0  0
   -9.1007   -6.7476  -15.0388 C   0  0  0  0  0  0
   -8.2626   -6.8454  -16.3058 C   0  0  0  0  0  0
   -9.1209   -8.0353  -14.3192 N   0  0  0  0  0  0
   -7.4265   -5.8710  -13.5803 O   0  0  0  0  0  0
   -9.5711   -1.8852  -14.7098 O   0  0  0  0  0  0
  -11.2055   -3.9199   -9.0992 O   0  0  0  0  0  0
   -7.1206   -2.2586   -4.3622 O   0  0  0  0  0  0
   -6.9520   -3.5975   -4.2067 C   0  0  0  0  0  0
   -7.4752   -4.4706   -4.8725 O   0  0  0  0  0  0
   -5.9249   -3.8264   -3.1324 C   0  0  0  0  0  0
   -5.7167   -5.3174   -2.8227 C   0  0  0  0  0  0
   -4.3383   -5.6053   -2.2140 C   0  0  0  0  0  0
   -3.3438   -6.0025   -3.2801 C   0  0  0  0  0  0
   -2.9417   -7.1501   -3.4388 O   0  0  0  0  0  0
   -2.9400   -4.9762   -4.0433 O   0  0  0  0  0  0
   -6.8207   -5.6997   -1.8273 C   0  0  0  0  0  0
   -6.6026   -5.9413   -0.6497 O   0  0  0  0  0  0
   -8.0433   -5.7960   -2.3675 O   0  0  0  0  0  0
   -8.5061   -2.1953   -7.8642 O   0  0  0  0  0  0
   -8.1892   -2.6815   -9.1217 C   0  0  0  0  0  0
   -8.1854   -2.0120  -10.1465 O   0  0  0  0  0  0
   -7.8359   -4.1744   -9.0985 C   0  0  0  0  0  0
   -7.4889   -4.8100  -10.4806 C   0  0  0  0  0  0
   -6.0351   -5.2517  -10.7291 C   0  0  0  0  0  0
   -5.3305   -5.6826   -9.4751 C   0  0  0  0  0  0
   -5.8421   -6.2813   -8.5390 O   0  0  0  0  0  0
   -4.0292   -5.3556   -9.4795 O   0  0  0  0  0  0
   -8.3937   -5.9788  -10.8901 C   0  0  0  0  0  0
   -7.9597   -7.0402  -11.2922 O   0  0  0  0  0  0
   -9.7129   -5.7935  -10.6742 O   0  0  0  0  0  0
   -8.8830   -8.7843  -14.9680 H   0  0  0  0  0  0
  -10.0815   -8.2328  -14.0298 H   0  0  0  0  0  0
   -6.8515   -5.8004  -14.3713 H   0  0  0  0  0  0
   -8.6764   -1.6317  -15.0025 H   0  0  0  0  0  0
  -10.3220   -3.8514   -9.4983 H   0  0  0  0  0  0
   -3.1691   -4.0896   -3.7043 H   0  0  0  0  0  0
   -8.7501   -6.0777   -1.7350 H   0  0  0  0  0  0
   -3.8743   -4.8285  -10.2916 H   0  0  0  0  0  0
  -10.2938   -6.5295  -10.9691 H   0  0  0  0  0  0
  1  2  1  0  0  0
  2  3  1  0  0  0
  3  4  1  0  0  0
  4  5  1  0  0  0
  5  6  1  0  0  0
  5  7  1  0  0  0
  7  8  1  0  0  0
  7 39  1  0  0  0
  8  9  1  0  0  0
  8 27  1  0  0  0
  9 10  1  0  0  0
 10 11  1  0  0  0
 10 12  1  0  0  0
 12 13  1  0  0  0
 13 14  1  0  0  0
 13 26  1  0  0  0
 14 15  1  0  0  0
 15 16  1  0  0  0
 16 17  1  0  0  0
 17 18  1  0  0  0
 18 19  1  0  0  0
 18 25  1  0  0  0
 19 20  1  0  0  0
 20 21  1  0  0  0
 20 24  1  0  0  0
 21 22  1  0  0  0
 21 23  1  0  0  0
 23 51  1  0  0  0
 23 52  1  0  0  0
 24 53  1  0  0  0
 25 54  1  0  0  0
 26 55  1  0  0  0
 27 28  1  0  0  0
 28 29  2  0  0  0
 28 30  1  0  0  0
 30 31  1  0  0  0
 31 32  1  0  0  0
 31 36  1  0  0  0
 32 33  1  0  0  0
 33 34  2  0  0  0
 33 35  1  0  0  0
 35 56  1  0  0  0
 36 37  2  0  0  0
 36 38  1  0  0  0
 38 57  1  0  0  0
 39 40  1  0  0  0
 40 41  2  0  0  0
 40 42  1  0  0  0
 42 43  1  0  0  0
 43 44  1  0  0  0
 43 48  1  0  0  0
 44 45  1  0  0  0
 45 46  2  0  0  0
 45 47  1  0  0  0
 47 58  1  0  0  0
 48 49  2  0  0  0
 48 50  1  0  0  0
 50 59  1  0  0  0
M  END
>  <AUTHOR>
    GENERATED BY OPEN BABEL 2.4.1

>  <CHROM.1>
132.30795189,85.07534858,59.38707439,167.36453089,178.54657437,50.75529957
-15.40420969,-62.28615859,-151.14504938,-162.82629436,145.29750623,95.59397432
-61.50059460,52.73988679,156.79933534,60.84938908,118.88619413,-40.57161302
179.04334749,129.56270269,51.63853602,-62.13342629,-152.15134333,3.69619317
176.79734209,155.90507123,-94.23915533,-108.83871865,-106.39464870,13.08676262
177.66321242,-123.85976433,179.00097671,111.40489963,30.24009875,-131.15174928
35.87842308,5.11270663,177.74715293,-7.55225550,-4.12265170,-8.41666897,-1.19184681
0.44983067,-1.75218414

>  <COMPND>
    UNNAMED

>  <MASTER>
        0    0    0    0    0    0    0    0  109    0  109    0

>  <Name>
FB1.pdb

>  <RI>
0

>  <Rbt.Current_Directory>
/home/fc/tossine/FB1_39/p3/0_clust04

>  <Rbt.Executable>
rbdock/0.1.0

>  <Rbt.Library>
librxdock.so/0.1.0

>  <Rbt.Parameter_File>
/cluster/rxdock/data/scripts/dock.prm

>  <Rbt.Receptor>
rx_2.prm

>  <SCORE>
61.4826

>  <SCORE.INTER>
17.4175

>  <SCORE.INTER.CONST>
1

>  <SCORE.INTER.POLAR>
-1.23828

>  <SCORE.INTER.REPUL>
0.393925

>  <SCORE.INTER.ROT>
32

>  <SCORE.INTER.VDW>
-17.742

>  <SCORE.INTER.norm>
0.34835

>  <SCORE.INTRA>
42.6038

>  <SCORE.INTRA.DIHEDRAL>
33.5373

>  <SCORE.INTRA.DIHEDRAL.0>
47.3121

>  <SCORE.INTRA.POLAR>
1.3713

>  <SCORE.INTRA.POLAR.0>
-1.47808

>  <SCORE.INTRA.REPUL>
0

>  <SCORE.INTRA.REPUL.0>
0

>  <SCORE.INTRA.VDW>
21.1728

>  <SCORE.INTRA.VDW.0>
-2.78316

>  <SCORE.INTRA.norm>
0.852077

>  <SCORE.RESTR>
1.46122

>  <SCORE.RESTR.CAVITY>
1.46122

>  <SCORE.RESTR.norm>
0.0292243

>  <SCORE.SYSTEM>
0

>  <SCORE.SYSTEM.CONST>
0

>  <SCORE.SYSTEM.DIHEDRAL>
0

>  <SCORE.SYSTEM.norm>
0

>  <SCORE.heavy>
50

>  <SCORE.norm>
1.22965

$$$$
