FB1.pdb
  RxDock  10062021473D
librxdock.so/0.1.0
 59 58  0  0  0  0  0  0  0  0999 V2000
  -11.9102   -1.3034  -11.7313 C   0  0  0  0  0  0
  -11.6247   -1.2831  -10.2315 C   0  0  0  0  0  0
  -11.0170   -2.6108   -9.7495 C   0  0  0  0  0  0
   -9.5582   -2.8299  -10.2224 C   0  0  0  0  0  0
   -8.9754   -4.2566   -9.9305 C   0  0  0  0  0  0
   -9.8627   -5.2998  -10.6482 C   0  0  0  0  0  0
   -7.4546   -4.4181  -10.3535 C   0  0  0  0  0  0
   -6.4135   -4.7855   -9.1927 C   0  0  0  0  0  0
   -4.8346   -4.6296   -9.2967 C   0  0  0  0  0  0
   -3.9640   -5.7598   -8.4683 C   0  0  0  0  0  0
   -2.4890   -5.3642   -8.5128 C   0  0  0  0  0  0
   -4.4036   -6.0165   -6.9564 C   0  0  0  0  0  0
   -3.5063   -6.8175   -5.8739 C   0  0  0  0  0  0
   -3.4289   -6.3922   -4.3675 C   0  0  0  0  0  0
   -2.7585   -4.9878   -4.0105 C   0  0  0  0  0  0
   -3.3769   -3.5854   -4.3919 C   0  0  0  0  0  0
   -4.6993   -3.1255   -3.7232 C   0  0  0  0  0  0
   -4.5639   -2.3047   -2.3827 C   0  0  0  0  0  0
   -5.8738   -1.9493   -1.6683 C   0  0  0  0  0  0
   -5.7932   -1.1703   -0.3249 C   0  0  0  0  0  0
   -7.0891   -0.8104    0.4603 C   0  0  0  0  0  0
   -6.9079    0.0232    1.7211 C   0  0  0  0  0  0
   -8.0935   -0.2032   -0.4336 N   0  0  0  0  0  0
   -5.0471   -2.0428    0.5618 O   0  0  0  0  0  0
   -3.7457   -3.0601   -1.4829 O   0  0  0  0  0  0
   -4.0458   -8.1499   -5.8603 O   0  0  0  0  0  0
   -6.7806   -3.9724   -8.0453 O   0  0  0  0  0  0
   -7.6501   -4.5179   -7.1555 C   0  0  0  0  0  0
   -8.1414   -5.6288   -7.2184 O   0  0  0  0  0  0
   -7.8309   -3.5547   -6.0150 C   0  0  0  0  0  0
   -8.3107   -2.1709   -6.4813 C   0  0  0  0  0  0
   -9.4279   -1.6057   -5.5949 C   0  0  0  0  0  0
  -10.7835   -1.8083   -6.2309 C   0  0  0  0  0  0
  -11.1519   -1.2229   -7.2435 O   0  0  0  0  0  0
  -11.5513   -2.6955   -5.5812 O   0  0  0  0  0  0
   -7.0798   -1.2558   -6.4225 C   0  0  0  0  0  0
   -7.1009   -0.1407   -5.9240 O   0  0  0  0  0  0
   -5.9861   -1.7615   -7.0092 O   0  0  0  0  0  0
   -7.3174   -5.3163  -11.5258 O   0  0  0  0  0  0
   -7.6866   -4.8357  -12.7711 C   0  0  0  0  0  0
   -8.3191   -3.8049  -12.9601 O   0  0  0  0  0  0
   -7.2118   -5.7450  -13.9121 C   0  0  0  0  0  0
   -8.3380   -6.3789  -14.7865 C   0  0  0  0  0  0
   -8.5837   -7.8937  -14.6626 C   0  0  0  0  0  0
   -8.8124   -8.3369  -13.2463 C   0  0  0  0  0  0
   -8.9716   -7.5981  -12.2843 O   0  0  0  0  0  0
   -8.8469   -9.6728  -13.1259 O   0  0  0  0  0  0
   -9.7020   -5.6876  -14.6687 C   0  0  0  0  0  0
  -10.2166   -5.0816  -15.5877 O   0  0  0  0  0  0
  -10.3526   -5.8847  -13.5029 O   0  0  0  0  0  0
   -8.1813   -0.7735   -1.2736 H   0  0  0  0  0  0
   -7.7367    0.6968   -0.7623 H   0  0  0  0  0  0
   -4.1661   -2.1280    0.1401 H   0  0  0  0  0  0
   -4.1204   -3.9573   -1.4114 H   0  0  0  0  0  0
   -3.3591   -8.7489   -5.5224 H   0  0  0  0  0  0
  -12.4785   -2.7444   -5.8837 H   0  0  0  0  0  0
   -6.1660   -2.4930   -7.6505 H   0  0  0  0  0  0
   -8.9739   -9.8662  -12.1731 H   0  0  0  0  0  0
  -11.2428   -5.4719  -13.4441 H   0  0  0  0  0  0
  1  2  1  0  0  0
  2  3  1  0  0  0
  3  4  1  0  0  0
  4  5  1  0  0  0
  5  6  1  0  0  0
  5  7  1  0  0  0
  7  8  1  0  0  0
  7 39  1  0  0  0
  8  9  1  0  0  0
  8 27  1  0  0  0
  9 10  1  0  0  0
 10 11  1  0  0  0
 10 12  1  0  0  0
 12 13  1  0  0  0
 13 14  1  0  0  0
 13 26  1  0  0  0
 14 15  1  0  0  0
 15 16  1  0  0  0
 16 17  1  0  0  0
 17 18  1  0  0  0
 18 19  1  0  0  0
 18 25  1  0  0  0
 19 20  1  0  0  0
 20 21  1  0  0  0
 20 24  1  0  0  0
 21 22  1  0  0  0
 21 23  1  0  0  0
 23 51  1  0  0  0
 23 52  1  0  0  0
 24 53  1  0  0  0
 25 54  1  0  0  0
 26 55  1  0  0  0
 27 28  1  0  0  0
 28 29  2  0  0  0
 28 30  1  0  0  0
 30 31  1  0  0  0
 31 32  1  0  0  0
 31 36  1  0  0  0
 32 33  1  0  0  0
 33 34  2  0  0  0
 33 35  1  0  0  0
 35 56  1  0  0  0
 36 37  2  0  0  0
 36 38  1  0  0  0
 38 57  1  0  0  0
 39 40  1  0  0  0
 40 41  2  0  0  0
 40 42  1  0  0  0
 42 43  1  0  0  0
 43 44  1  0  0  0
 43 48  1  0  0  0
 44 45  1  0  0  0
 45 46  2  0  0  0
 45 47  1  0  0  0
 47 58  1  0  0  0
 48 49  2  0  0  0
 48 50  1  0  0  0
 50 59  1  0  0  0
M  END
>  <AUTHOR>
    GENERATED BY OPEN BABEL 2.4.1

>  <CHROM.1>
71.28625320,-171.50264221,59.59089468,119.63332208,-163.34141885,74.23001873
-146.82641677,91.59507851,-172.48011661,-165.80439742,142.30305227,-65.57519631
157.65033689,67.59824692,67.25649430,90.20851510,-175.30863253,178.55494043
-52.85501268,-178.63444318,-176.54049287,62.50524612,48.06889788,0.84359595
56.60813270,136.10611700,-99.93726822,-133.38756987,-68.71749576,170.82869193
19.27382847,-12.42435819,117.92401734,-109.83801812,53.59715275,113.21721323
9.26754076,178.45725232,-177.55019375,-7.36606481,-3.99922222,-7.75082579
1.90652011,0.59929122,-2.08226948

>  <COMPND>
    UNNAMED

>  <MASTER>
        0    0    0    0    0    0    0    0  109    0  109    0

>  <Name>
FB1.pdb

>  <RI>
0

>  <Rbt.Current_Directory>
/home/fc/tossine/FB1_39/p3/0_clust04

>  <Rbt.Executable>
rbdock/0.1.0

>  <Rbt.Library>
librxdock.so/0.1.0

>  <Rbt.Parameter_File>
/cluster/rxdock/data/scripts/dock.prm

>  <Rbt.Receptor>
rx_2.prm

>  <SCORE>
5.66669

>  <SCORE.INTER>
-2.91136

>  <SCORE.INTER.CONST>
1

>  <SCORE.INTER.POLAR>
-3.27741

>  <SCORE.INTER.REPUL>
0.00853991

>  <SCORE.INTER.ROT>
32

>  <SCORE.INTER.VDW>
-29.2109

>  <SCORE.INTER.norm>
-0.0582271

>  <SCORE.INTRA>
1.73534

>  <SCORE.INTRA.DIHEDRAL>
7.87759

>  <SCORE.INTRA.DIHEDRAL.0>
47.3121

>  <SCORE.INTRA.POLAR>
0.0667856

>  <SCORE.INTRA.POLAR.0>
-1.47808

>  <SCORE.INTRA.REPUL>
0.0130459

>  <SCORE.INTRA.REPUL.0>
0

>  <SCORE.INTRA.VDW>
-2.49576

>  <SCORE.INTRA.VDW.0>
-2.78316

>  <SCORE.INTRA.norm>
0.0347068

>  <SCORE.RESTR>
6.84271

>  <SCORE.RESTR.CAVITY>
6.84271

>  <SCORE.RESTR.norm>
0.136854

>  <SCORE.SYSTEM>
0

>  <SCORE.SYSTEM.CONST>
0

>  <SCORE.SYSTEM.DIHEDRAL>
0

>  <SCORE.SYSTEM.norm>
0

>  <SCORE.heavy>
50

>  <SCORE.norm>
0.113334

$$$$
