FB1.pdb
  RxDock  10062019543D
librxdock.so/0.1.0
 59 58  0  0  0  0  0  0  0  0999 V2000
  -10.6299  -12.9740  -16.8451 C   0  0  0  0  0  0
  -10.7776  -13.0455  -15.3270 C   0  0  0  0  0  0
   -9.7678  -12.1317  -14.6131 C   0  0  0  0  0  0
  -10.1061  -10.6248  -14.7332 C   0  0  0  0  0  0
   -9.0869   -9.6600  -14.0326 C   0  0  0  0  0  0
   -7.7853   -9.6399  -14.8668 C   0  0  0  0  0  0
   -9.6483   -8.1910  -13.8212 C   0  0  0  0  0  0
   -8.9089   -7.2818  -12.7290 C   0  0  0  0  0  0
   -7.4696   -6.6293  -12.9044 C   0  0  0  0  0  0
   -6.6921   -6.2614  -11.4967 C   0  0  0  0  0  0
   -5.5031   -5.3584  -11.8210 C   0  0  0  0  0  0
   -7.5818   -5.5859  -10.3579 C   0  0  0  0  0  0
   -7.0103   -5.1160   -8.9188 C   0  0  0  0  0  0
   -7.8756   -5.1691   -7.6132 C   0  0  0  0  0  0
   -7.8935   -3.8855   -6.6638 C   0  0  0  0  0  0
   -9.0936   -2.8626   -6.5748 C   0  0  0  0  0  0
   -9.2000   -1.9131   -5.3523 C   0  0  0  0  0  0
   -9.4636   -2.5918   -3.9526 C   0  0  0  0  0  0
   -8.2218   -3.0162   -3.1587 C   0  0  0  0  0  0
   -7.3641   -4.1928   -3.7047 C   0  0  0  0  0  0
   -5.8847   -4.3705   -3.2516 C   0  0  0  0  0  0
   -5.6668   -4.8668   -1.8291 C   0  0  0  0  0  0
   -5.1344   -5.1946   -4.2183 N   0  0  0  0  0  0
   -8.0441   -5.3882   -3.2440 O   0  0  0  0  0  0
  -10.2232   -1.6776   -3.1545 O   0  0  0  0  0  0
   -5.8928   -5.9835   -8.6638 O   0  0  0  0  0  0
   -9.7881   -6.1518  -12.4785 O   0  0  0  0  0  0
  -10.8493   -6.3660  -11.6580 C   0  0  0  0  0  0
  -11.1160   -7.4040  -11.0828 O   0  0  0  0  0  0
  -11.5932   -5.0694  -11.4938 C   0  0  0  0  0  0
  -10.7012   -3.9417  -10.9506 C   0  0  0  0  0  0
  -11.0719   -2.5689  -11.5261 C   0  0  0  0  0  0
  -10.1578   -1.4898  -10.9938 C   0  0  0  0  0  0
   -9.0002   -1.6931  -10.6440 O   0  0  0  0  0  0
  -10.7339   -0.2798  -10.9408 O   0  0  0  0  0  0
  -10.8987   -3.9438   -9.4284 C   0  0  0  0  0  0
  -11.1676   -2.9380   -8.7894 O   0  0  0  0  0  0
  -10.7028   -5.1352   -8.8469 O   0  0  0  0  0  0
   -9.8032   -7.4855  -15.1166 O   0  0  0  0  0  0
  -10.9964   -7.6268  -15.8055 C   0  0  0  0  0  0
  -11.9071   -8.3748  -15.4745 O   0  0  0  0  0  0
  -11.0615   -6.7319  -17.0501 C   0  0  0  0  0  0
  -11.4236   -5.2365  -16.7910 C   0  0  0  0  0  0
  -10.6756   -4.4952  -15.6679 C   0  0  0  0  0  0
  -11.0231   -3.0363  -15.5953 C   0  0  0  0  0  0
  -10.2235   -2.1106  -15.6128 O   0  0  0  0  0  0
  -12.3465   -2.8269  -15.5250 O   0  0  0  0  0  0
  -11.3717   -4.3428  -18.0363 C   0  0  0  0  0  0
  -10.5639   -4.5021  -18.9301 O   0  0  0  0  0  0
  -12.3559   -3.4244  -18.1318 O   0  0  0  0  0  0
   -5.1800   -4.7562   -5.1372 H   0  0  0  0  0  0
   -5.6172   -6.0891   -4.3289 H   0  0  0  0  0  0
   -7.5287   -6.1287   -3.6279 H   0  0  0  0  0  0
  -11.0645   -1.4993   -3.6138 H   0  0  0  0  0  0
   -6.1569   -6.8899   -8.8945 H   0  0  0  0  0  0
  -11.6766   -0.2557  -11.1940 H   0  0  0  0  0  0
  -10.8462   -5.1423   -7.8681 H   0  0  0  0  0  0
  -12.7706   -3.5210  -16.0725 H   0  0  0  0  0  0
  -12.3303   -2.8643  -18.9392 H   0  0  0  0  0  0
  1  2  1  0  0  0
  2  3  1  0  0  0
  3  4  1  0  0  0
  4  5  1  0  0  0
  5  6  1  0  0  0
  5  7  1  0  0  0
  7  8  1  0  0  0
  7 39  1  0  0  0
  8  9  1  0  0  0
  8 27  1  0  0  0
  9 10  1  0  0  0
 10 11  1  0  0  0
 10 12  1  0  0  0
 12 13  1  0  0  0
 13 14  1  0  0  0
 13 26  1  0  0  0
 14 15  1  0  0  0
 15 16  1  0  0  0
 16 17  1  0  0  0
 17 18  1  0  0  0
 18 19  1  0  0  0
 18 25  1  0  0  0
 19 20  1  0  0  0
 20 21  1  0  0  0
 20 24  1  0  0  0
 21 22  1  0  0  0
 21 23  1  0  0  0
 23 51  1  0  0  0
 23 52  1  0  0  0
 24 53  1  0  0  0
 25 54  1  0  0  0
 26 55  1  0  0  0
 27 28  1  0  0  0
 28 29  2  0  0  0
 28 30  1  0  0  0
 30 31  1  0  0  0
 31 32  1  0  0  0
 31 36  1  0  0  0
 32 33  1  0  0  0
 33 34  2  0  0  0
 33 35  1  0  0  0
 35 56  1  0  0  0
 36 37  2  0  0  0
 36 38  1  0  0  0
 38 57  1  0  0  0
 39 40  1  0  0  0
 40 41  2  0  0  0
 40 42  1  0  0  0
 42 43  1  0  0  0
 43 44  1  0  0  0
 43 48  1  0  0  0
 44 45  1  0  0  0
 45 46  2  0  0  0
 45 47  1  0  0  0
 47 58  1  0  0  0
 48 49  2  0  0  0
 48 50  1  0  0  0
 50 59  1  0  0  0
M  END
>  <AUTHOR>
    GENERATED BY OPEN BABEL 2.4.1

>  <CHROM.1>
72.99397235,-179.23094394,72.29562470,160.96282256,72.78873965,88.05722992
-157.02206533,78.86461409,-166.70954850,-178.52360687,-147.22715730,-132.70772600
-44.31871113,104.12568041,161.96134590,-65.55578384,88.92505254,-68.58600675
60.23009384,159.51005319,72.75219011,177.15256714,57.77912877,2.11678361
-56.98928538,145.50931157,-178.80755420,-129.38506598,28.47005643,3.74225773
-178.90960312,-5.70586331,-79.93104602,47.67413979,174.93813870,-34.66613133
-126.38638570,-35.06082448,-178.88729763,-9.45594995,-5.38395219,-11.18047289
-2.15195925,-1.14470088,0.72079066

>  <COMPND>
    UNNAMED

>  <MASTER>
        0    0    0    0    0    0    0    0  109    0  109    0

>  <Name>
FB1.pdb

>  <RI>
0

>  <Rbt.Current_Directory>
/home/fc/tossine/FB1_39/p3/0_clust04

>  <Rbt.Executable>
rbdock/0.1.0

>  <Rbt.Library>
librxdock.so/0.1.0

>  <Rbt.Parameter_File>
/cluster/rxdock/data/scripts/dock.prm

>  <Rbt.Receptor>
rx_0.prm

>  <SCORE>
0.12369

>  <SCORE.INTER>
-5.67248

>  <SCORE.INTER.CONST>
1

>  <SCORE.INTER.POLAR>
-3.28027

>  <SCORE.INTER.REPUL>
0.999493

>  <SCORE.INTER.ROT>
32

>  <SCORE.INTER.VDW>
-36.917

>  <SCORE.INTER.norm>
-0.11345

>  <SCORE.INTRA>
5.79617

>  <SCORE.INTRA.DIHEDRAL>
7.41836

>  <SCORE.INTRA.DIHEDRAL.0>
47.3121

>  <SCORE.INTRA.POLAR>
1.17009

>  <SCORE.INTRA.POLAR.0>
-1.47808

>  <SCORE.INTRA.REPUL>
0

>  <SCORE.INTRA.REPUL.0>
0

>  <SCORE.INTRA.VDW>
-1.89132

>  <SCORE.INTRA.VDW.0>
-2.78316

>  <SCORE.INTRA.norm>
0.115923

>  <SCORE.RESTR>
0

>  <SCORE.RESTR.CAVITY>
0

>  <SCORE.RESTR.norm>
0

>  <SCORE.SYSTEM>
0

>  <SCORE.SYSTEM.CONST>
0

>  <SCORE.SYSTEM.DIHEDRAL>
0

>  <SCORE.SYSTEM.norm>
0

>  <SCORE.heavy>
50

>  <SCORE.norm>
0.00247379

$$$$
