FB1.pdb
  RxDock  10062021423D
librxdock.so/0.1.0
 59 58  0  0  0  0  0  0  0  0999 V2000
  -12.6286   -0.5502   -8.6469 C   0  0  0  0  0  0
  -12.6952   -0.1881   -7.1650 C   0  0  0  0  0  0
  -11.8782   -1.1646   -6.3030 C   0  0  0  0  0  0
  -10.4200   -0.7019   -6.0594 C   0  0  0  0  0  0
   -9.4319   -1.8356   -5.6135 C   0  0  0  0  0  0
   -9.8677   -2.3382   -4.2178 C   0  0  0  0  0  0
   -9.3394   -3.0371   -6.6459 C   0  0  0  0  0  0
   -9.0596   -2.6584   -8.1770 C   0  0  0  0  0  0
   -7.8755   -3.2431   -9.0626 C   0  0  0  0  0  0
   -8.3187   -3.7752  -10.5599 C   0  0  0  0  0  0
   -8.8435   -2.5854  -11.3618 C   0  0  0  0  0  0
   -7.1924   -4.5310  -11.3994 C   0  0  0  0  0  0
   -6.3911   -5.8353  -10.8746 C   0  0  0  0  0  0
   -5.7255   -6.8626  -11.8533 C   0  0  0  0  0  0
   -6.3259   -7.0039  -13.3260 C   0  0  0  0  0  0
   -6.6529   -5.7831  -14.2733 C   0  0  0  0  0  0
   -6.8520   -6.0262  -15.7927 C   0  0  0  0  0  0
   -8.1995   -6.7237  -16.2250 C   0  0  0  0  0  0
   -8.6500   -7.9175  -15.3740 C   0  0  0  0  0  0
   -7.6442   -9.0812  -15.1450 C   0  0  0  0  0  0
   -8.0831  -10.5601  -15.3587 C   0  0  0  0  0  0
   -7.2169  -11.6256  -14.7015 C   0  0  0  0  0  0
   -9.5035  -10.7432  -15.0048 N   0  0  0  0  0  0
   -6.5941   -8.8566  -16.1200 O   0  0  0  0  0  0
   -9.2347   -5.7349  -16.2056 O   0  0  0  0  0  0
   -5.3085   -5.3119  -10.0869 O   0  0  0  0  0  0
  -10.2645   -3.0108   -8.9095 O   0  0  0  0  0  0
  -10.5066   -4.3340   -9.0988 C   0  0  0  0  0  0
  -10.2234   -5.2341   -8.3314 O   0  0  0  0  0  0
  -11.2798   -4.4981  -10.3781 C   0  0  0  0  0  0
  -10.6570   -5.5463  -11.3140 C   0  0  0  0  0  0
  -11.5546   -6.7763  -11.5004 C   0  0  0  0  0  0
  -10.7499   -7.9765  -11.9423 C   0  0  0  0  0  0
   -9.5403   -7.9460  -12.1419 O   0  0  0  0  0  0
  -11.4865   -9.0868  -12.0955 O   0  0  0  0  0  0
  -10.4488   -4.8391  -12.6603 C   0  0  0  0  0  0
  -11.1781   -3.9464  -13.0646 O   0  0  0  0  0  0
   -9.4259   -5.3159  -13.3830 O   0  0  0  0  0  0
   -8.4177   -4.0920   -6.1585 O   0  0  0  0  0  0
   -7.0647   -3.8046   -6.0894 C   0  0  0  0  0  0
   -6.5789   -2.6944   -6.2620 O   0  0  0  0  0  0
   -6.2201   -5.0445   -5.7673 C   0  0  0  0  0  0
   -4.8328   -4.7669   -5.1095 C   0  0  0  0  0  0
   -4.6786   -3.4950   -4.2558 C   0  0  0  0  0  0
   -5.6755   -3.4158   -3.1358 C   0  0  0  0  0  0
   -6.6959   -4.0839   -3.0402 O   0  0  0  0  0  0
   -5.3244   -2.5222   -2.1985 O   0  0  0  0  0  0
   -4.2714   -5.9343   -4.2884 C   0  0  0  0  0  0
   -4.1216   -5.8822   -3.0836 O   0  0  0  0  0  0
   -4.0506   -7.0737   -4.9770 O   0  0  0  0  0  0
   -9.8170  -11.6527  -15.3410 H   0  0  0  0  0  0
  -10.0605  -10.0630  -15.5270 H   0  0  0  0  0  0
   -7.0034   -9.0863  -16.9808 H   0  0  0  0  0  0
   -9.0164   -5.0530  -16.8673 H   0  0  0  0  0  0
   -4.8340   -4.6568  -10.6257 H   0  0  0  0  0  0
  -10.9773   -9.9121  -12.2095 H   0  0  0  0  0  0
   -9.2819   -4.8526  -14.2452 H   0  0  0  0  0  0
   -5.2113   -1.6631   -2.6572 H   0  0  0  0  0  0
   -3.8847   -7.8712   -4.4268 H   0  0  0  0  0  0
  1  2  1  0  0  0
  2  3  1  0  0  0
  3  4  1  0  0  0
  4  5  1  0  0  0
  5  6  1  0  0  0
  5  7  1  0  0  0
  7  8  1  0  0  0
  7 39  1  0  0  0
  8  9  1  0  0  0
  8 27  1  0  0  0
  9 10  1  0  0  0
 10 11  1  0  0  0
 10 12  1  0  0  0
 12 13  1  0  0  0
 13 14  1  0  0  0
 13 26  1  0  0  0
 14 15  1  0  0  0
 15 16  1  0  0  0
 16 17  1  0  0  0
 17 18  1  0  0  0
 18 19  1  0  0  0
 18 25  1  0  0  0
 19 20  1  0  0  0
 20 21  1  0  0  0
 20 24  1  0  0  0
 21 22  1  0  0  0
 21 23  1  0  0  0
 23 51  1  0  0  0
 23 52  1  0  0  0
 24 53  1  0  0  0
 25 54  1  0  0  0
 26 55  1  0  0  0
 27 28  1  0  0  0
 28 29  2  0  0  0
 28 30  1  0  0  0
 30 31  1  0  0  0
 31 32  1  0  0  0
 31 36  1  0  0  0
 32 33  1  0  0  0
 33 34  2  0  0  0
 33 35  1  0  0  0
 35 56  1  0  0  0
 36 37  2  0  0  0
 36 38  1  0  0  0
 38 57  1  0  0  0
 39 40  1  0  0  0
 40 41  2  0  0  0
 40 42  1  0  0  0
 42 43  1  0  0  0
 43 44  1  0  0  0
 43 48  1  0  0  0
 44 45  1  0  0  0
 45 46  2  0  0  0
 45 47  1  0  0  0
 47 58  1  0  0  0
 48 49  2  0  0  0
 48 50  1  0  0  0
 50 59  1  0  0  0
M  END
>  <AUTHOR>
    GENERATED BY OPEN BABEL 2.4.1

>  <CHROM.1>
92.33325039,-160.73271331,-65.79771843,51.09543944,125.51160144,-68.21317747
132.49375679,-72.64624199,63.40689855,56.09154120,155.99119644,-25.94791906
-52.39106396,48.01165000,163.05323384,73.50956775,-43.48725189,-53.28135970
62.97132950,-131.73876472,-160.98155260,-72.10275112,167.76199243,33.34976255
129.35670149,113.82403161,-157.74109451,-31.23182050,-1.10046936,-168.62095905
-179.14702594,8.40751651,-156.06243819,28.32485947,56.37283941,-113.90117319
-15.87397644,56.45548541,-166.97961321,-8.29243361,-5.14958410,-9.71877915
1.43413135,-0.60563683,1.04669625

>  <COMPND>
    UNNAMED

>  <MASTER>
        0    0    0    0    0    0    0    0  109    0  109    0

>  <Name>
FB1.pdb

>  <RI>
0

>  <Rbt.Current_Directory>
/home/fc/tossine/FB1_39/p3/0_clust04

>  <Rbt.Executable>
rbdock/0.1.0

>  <Rbt.Library>
librxdock.so/0.1.0

>  <Rbt.Parameter_File>
/cluster/rxdock/data/scripts/dock.prm

>  <Rbt.Receptor>
rx_2.prm

>  <SCORE>
36.618

>  <SCORE.INTER>
12.8946

>  <SCORE.INTER.CONST>
1

>  <SCORE.INTER.POLAR>
-2.69941

>  <SCORE.INTER.REPUL>
0.408986

>  <SCORE.INTER.ROT>
32

>  <SCORE.INTER.VDW>
-17.3724

>  <SCORE.INTER.norm>
0.257891

>  <SCORE.INTRA>
20.3711

>  <SCORE.INTRA.DIHEDRAL>
32.0739

>  <SCORE.INTRA.DIHEDRAL.0>
47.3121

>  <SCORE.INTRA.POLAR>
0.933314

>  <SCORE.INTRA.POLAR.0>
-1.47808

>  <SCORE.INTRA.REPUL>
0

>  <SCORE.INTRA.REPUL.0>
0

>  <SCORE.INTRA.VDW>
1.16086

>  <SCORE.INTRA.VDW.0>
-2.78316

>  <SCORE.INTRA.norm>
0.407421

>  <SCORE.RESTR>
3.35242

>  <SCORE.RESTR.CAVITY>
3.35242

>  <SCORE.RESTR.norm>
0.0670484

>  <SCORE.SYSTEM>
0

>  <SCORE.SYSTEM.CONST>
0

>  <SCORE.SYSTEM.DIHEDRAL>
0

>  <SCORE.SYSTEM.norm>
0

>  <SCORE.heavy>
50

>  <SCORE.norm>
0.732361

$$$$
