FB1.pdb
  RxDock  10062021043D
librxdock.so/0.1.0
 59 58  0  0  0  0  0  0  0  0999 V2000
   -8.2188   -9.2523  -13.7325 C   0  0  0  0  0  0
   -9.7412   -9.3278  -13.6449 C   0  0  0  0  0  0
  -10.3708   -7.9368  -13.4631 C   0  0  0  0  0  0
  -10.5025   -7.5075  -11.9805 C   0  0  0  0  0  0
  -11.3247   -6.1930  -11.7429 C   0  0  0  0  0  0
  -12.4423   -6.4978  -10.7187 C   0  0  0  0  0  0
  -10.4363   -4.9679  -11.2656 C   0  0  0  0  0  0
   -9.6257   -4.1750  -12.3972 C   0  0  0  0  0  0
   -8.0524   -3.9453  -12.4045 C   0  0  0  0  0  0
   -7.1463   -5.3016  -12.1577 C   0  0  0  0  0  0
   -6.2524   -5.5165  -13.3779 C   0  0  0  0  0  0
   -6.2574   -5.3220  -10.8332 C   0  0  0  0  0  0
   -6.7293   -5.9830   -9.4336 C   0  0  0  0  0  0
   -7.5583   -5.1888   -8.3667 C   0  0  0  0  0  0
   -6.7662   -4.3817   -7.2396 C   0  0  0  0  0  0
   -7.3004   -4.1497   -5.7715 C   0  0  0  0  0  0
   -6.3155   -4.2414   -4.5760 C   0  0  0  0  0  0
   -6.8909   -3.8611   -3.1571 C   0  0  0  0  0  0
   -5.8629   -3.6806   -2.0332 C   0  0  0  0  0  0
   -5.1065   -2.3253   -1.9364 C   0  0  0  0  0  0
   -3.7022   -2.2488   -1.2676 C   0  0  0  0  0  0
   -3.5788   -2.8604    0.1210 C   0  0  0  0  0  0
   -2.6608   -2.7755   -2.1701 N   0  0  0  0  0  0
   -4.8885   -1.9268   -3.3139 O   0  0  0  0  0  0
   -7.6340   -2.6449   -3.2933 O   0  0  0  0  0  0
   -7.5658   -7.0896   -9.8109 O   0  0  0  0  0  0
   -9.8945   -4.8645  -13.6481 O   0  0  0  0  0  0
  -10.4743   -4.1395  -14.6398 C   0  0  0  0  0  0
  -10.5763   -2.9281  -14.6800 O   0  0  0  0  0  0
  -10.8844   -5.0797  -15.7395 C   0  0  0  0  0  0
   -9.6953   -5.5360  -16.5999 C   0  0  0  0  0  0
   -8.4010   -5.6762  -15.7885 C   0  0  0  0  0  0
   -7.2092   -5.8817  -16.6945 C   0  0  0  0  0  0
   -6.5906   -6.9376  -16.7725 O   0  0  0  0  0  0
   -6.8897   -4.7945  -17.4120 O   0  0  0  0  0  0
  -10.0970   -6.8961  -17.1872 C   0  0  0  0  0  0
   -9.2921   -7.7837  -17.4253 O   0  0  0  0  0  0
  -11.4026   -7.0145  -17.4654 O   0  0  0  0  0  0
  -11.2116   -4.0517  -10.3942 O   0  0  0  0  0  0
  -11.1130   -2.6885  -10.6181 C   0  0  0  0  0  0
  -10.0607   -2.0824  -10.7720 O   0  0  0  0  0  0
  -12.4848   -2.0022  -10.6548 C   0  0  0  0  0  0
  -12.5403   -0.6393  -11.4124 C   0  0  0  0  0  0
  -13.6146   -0.4600  -12.5007 C   0  0  0  0  0  0
  -13.0537    0.0349  -13.8026 C   0  0  0  0  0  0
  -12.8923   -0.6377  -14.8116 O   0  0  0  0  0  0
  -12.7490    1.3411  -13.7666 O   0  0  0  0  0  0
  -12.6068    0.5937  -10.5028 C   0  0  0  0  0  0
  -13.0489    0.5564   -9.3714 O   0  0  0  0  0  0
  -12.0409    1.7128  -11.0014 O   0  0  0  0  0  0
   -1.8159   -2.9627   -1.6321 H   0  0  0  0  0  0
   -2.3962   -2.0392   -2.8285 H   0  0  0  0  0  0
   -4.1771   -2.5212   -3.6330 H   0  0  0  0  0  0
   -7.0324   -1.9573   -3.6335 H   0  0  0  0  0  0
   -6.9905   -7.8113  -10.1152 H   0  0  0  0  0  0
   -7.4277   -4.0008  -17.2277 H   0  0  0  0  0  0
  -11.6807   -7.9204  -17.7498 H   0  0  0  0  0  0
  -12.3683    1.5654  -14.6419 H   0  0  0  0  0  0
  -11.7911    1.6694  -11.9511 H   0  0  0  0  0  0
  1  2  1  0  0  0
  2  3  1  0  0  0
  3  4  1  0  0  0
  4  5  1  0  0  0
  5  6  1  0  0  0
  5  7  1  0  0  0
  7  8  1  0  0  0
  7 39  1  0  0  0
  8  9  1  0  0  0
  8 27  1  0  0  0
  9 10  1  0  0  0
 10 11  1  0  0  0
 10 12  1  0  0  0
 12 13  1  0  0  0
 13 14  1  0  0  0
 13 26  1  0  0  0
 14 15  1  0  0  0
 15 16  1  0  0  0
 16 17  1  0  0  0
 17 18  1  0  0  0
 18 19  1  0  0  0
 18 25  1  0  0  0
 19 20  1  0  0  0
 20 21  1  0  0  0
 20 24  1  0  0  0
 21 22  1  0  0  0
 21 23  1  0  0  0
 23 51  1  0  0  0
 23 52  1  0  0  0
 24 53  1  0  0  0
 25 54  1  0  0  0
 26 55  1  0  0  0
 27 28  1  0  0  0
 28 29  2  0  0  0
 28 30  1  0  0  0
 30 31  1  0  0  0
 31 32  1  0  0  0
 31 36  1  0  0  0
 32 33  1  0  0  0
 33 34  2  0  0  0
 33 35  1  0  0  0
 35 56  1  0  0  0
 36 37  2  0  0  0
 36 38  1  0  0  0
 38 57  1  0  0  0
 39 40  1  0  0  0
 40 41  2  0  0  0
 40 42  1  0  0  0
 42 43  1  0  0  0
 43 44  1  0  0  0
 43 48  1  0  0  0
 44 45  1  0  0  0
 45 46  2  0  0  0
 45 47  1  0  0  0
 47 58  1  0  0  0
 48 49  2  0  0  0
 48 50  1  0  0  0
 50 59  1  0  0  0
M  END
>  <AUTHOR>
    GENERATED BY OPEN BABEL 2.4.1

>  <CHROM.1>
-88.54621286,-171.54601274,126.19578167,80.26598039,-123.59952732,-134.93911826
49.73617877,120.71222281,119.86940414,94.46427522,-86.99438860,-90.39747647
76.17389380,-148.30439615,140.07120449,174.25484006,-168.19700527,81.16122289
-59.02380930,-154.41319153,-51.50230641,-73.91217413,-164.01587195,14.00601657
-76.69678963,33.97283644,-169.82827375,-148.17757460,-110.42354538,3.15857115
-173.60970447,-47.56604771,-157.64980271,127.93629900,-129.06440929,-25.03406640
105.43632744,178.31129102,10.56481147,-9.01729100,-4.08022194,-10.87495270
-2.10047046,-0.79406871,1.00560921

>  <COMPND>
    UNNAMED

>  <MASTER>
        0    0    0    0    0    0    0    0  109    0  109    0

>  <Name>
FB1.pdb

>  <RI>
0

>  <Rbt.Current_Directory>
/home/fc/tossine/FB1_39/p3/0_clust04

>  <Rbt.Executable>
rbdock/0.1.0

>  <Rbt.Library>
librxdock.so/0.1.0

>  <Rbt.Parameter_File>
/cluster/rxdock/data/scripts/dock.prm

>  <Rbt.Receptor>
rx_1.prm

>  <SCORE>
28.0591

>  <SCORE.INTER>
3.59332

>  <SCORE.INTER.CONST>
1

>  <SCORE.INTER.POLAR>
-2.17574

>  <SCORE.INTER.REPUL>
0.343359

>  <SCORE.INTER.ROT>
32

>  <SCORE.INTER.VDW>
-28.126

>  <SCORE.INTER.norm>
0.0718664

>  <SCORE.INTRA>
23.234

>  <SCORE.INTRA.DIHEDRAL>
48.375

>  <SCORE.INTRA.DIHEDRAL.0>
47.3121

>  <SCORE.INTRA.POLAR>
0.15926

>  <SCORE.INTRA.POLAR.0>
-1.47808

>  <SCORE.INTRA.REPUL>
0

>  <SCORE.INTRA.REPUL.0>
0

>  <SCORE.INTRA.VDW>
-1.49497

>  <SCORE.INTRA.VDW.0>
-2.78316

>  <SCORE.INTRA.norm>
0.464681

>  <SCORE.RESTR>
1.23173

>  <SCORE.RESTR.CAVITY>
1.23173

>  <SCORE.RESTR.norm>
0.0246346

>  <SCORE.SYSTEM>
0

>  <SCORE.SYSTEM.CONST>
0

>  <SCORE.SYSTEM.DIHEDRAL>
0

>  <SCORE.SYSTEM.norm>
0

>  <SCORE.heavy>
50

>  <SCORE.norm>
0.561182

$$$$
