FB1.pdb
  RxDock  10062022563D
librxdock.so/0.1.0
 59 58  0  0  0  0  0  0  0  0999 V2000
   -4.4181   -2.2706   -0.3984 C   0  0  0  0  0  0
   -3.5486   -1.3601   -1.2624 C   0  0  0  0  0  0
   -2.8473   -2.1412   -2.3859 C   0  0  0  0  0  0
   -3.7190   -2.3145   -3.6547 C   0  0  0  0  0  0
   -3.4196   -3.6070   -4.4916 C   0  0  0  0  0  0
   -3.6699   -4.8379   -3.5901 C   0  0  0  0  0  0
   -4.2643   -3.7036   -5.8313 C   0  0  0  0  0  0
   -4.5265   -2.3366   -6.6242 C   0  0  0  0  0  0
   -3.5186   -1.6707   -7.6581 C   0  0  0  0  0  0
   -1.9367   -2.0980   -7.4670 C   0  0  0  0  0  0
   -1.6816   -3.3799   -8.2582 C   0  0  0  0  0  0
   -0.8568   -0.9958   -7.8717 C   0  0  0  0  0  0
    0.6377   -0.9204   -7.2558 C   0  0  0  0  0  0
    1.6959    0.1272   -7.7445 C   0  0  0  0  0  0
    3.1239    0.1507   -7.0307 C   0  0  0  0  0  0
    4.3368    1.0473   -7.4992 C   0  0  0  0  0  0
    5.0573    1.9574   -6.4696 C   0  0  0  0  0  0
    6.3893    2.6518   -6.9522 C   0  0  0  0  0  0
    6.2398    3.7338   -8.0289 C   0  0  0  0  0  0
    7.5298    4.3136   -8.6757 C   0  0  0  0  0  0
    7.4376    5.3893   -9.7981 C   0  0  0  0  0  0
    6.5184    5.0698  -10.9688 C   0  0  0  0  0  0
    7.1276    6.7154   -9.2309 N   0  0  0  0  0  0
    8.2257    4.9684   -7.5844 O   0  0  0  0  0  0
    7.0239    3.2332   -5.8081 O   0  0  0  0  0  0
    0.4480   -0.6384   -5.8590 O   0  0  0  0  0  0
   -5.7458   -2.5379   -7.3891 O   0  0  0  0  0  0
   -6.5071   -1.4404   -7.6365 C   0  0  0  0  0  0
   -6.7099   -0.9358   -8.7244 O   0  0  0  0  0  0
   -7.1474   -1.0049   -6.3473 C   0  0  0  0  0  0
   -8.4223   -1.8001   -6.0234 C   0  0  0  0  0  0
   -9.0274   -2.4726   -7.2623 C   0  0  0  0  0  0
  -10.5205   -2.2500   -7.3289 C   0  0  0  0  0  0
  -11.1033   -1.8552   -8.3330 O   0  0  0  0  0  0
  -11.1540   -2.5279   -6.1798 O   0  0  0  0  0  0
   -8.0067   -2.8642   -4.9983 C   0  0  0  0  0  0
   -8.4459   -2.9003   -3.8589 O   0  0  0  0  0  0
   -7.0808   -3.7263   -5.4405 O   0  0  0  0  0  0
   -3.7382   -4.7679   -6.7204 O   0  0  0  0  0  0
   -4.3980   -5.9851   -6.7533 C   0  0  0  0  0  0
   -4.6402   -6.6727   -5.7700 O   0  0  0  0  0  0
   -4.8030   -6.3914   -8.1764 C   0  0  0  0  0  0
   -5.5206   -5.2900   -9.0170 C   0  0  0  0  0  0
   -4.9996   -5.0107  -10.4386 C   0  0  0  0  0  0
   -5.6751   -5.8481  -11.4859 C   0  0  0  0  0  0
   -6.4517   -5.4367  -12.3369 O   0  0  0  0  0  0
   -5.3227   -7.1409  -11.4153 O   0  0  0  0  0  0
   -7.0423   -5.4539   -9.1163 C   0  0  0  0  0  0
   -7.8217   -4.5630   -8.8418 O   0  0  0  0  0  0
   -7.4662   -6.6258   -9.6344 O   0  0  0  0  0  0
    7.5635    6.7965   -8.3134 H   0  0  0  0  0  0
    6.1224    6.7666   -9.0505 H   0  0  0  0  0  0
    8.7433    4.2533   -7.1576 H   0  0  0  0  0  0
    6.8936    4.1987   -5.8459 H   0  0  0  0  0  0
    1.3087   -0.7227   -5.4156 H   0  0  0  0  0  0
  -12.1260   -2.5929   -6.2452 H   0  0  0  0  0  0
   -6.7586   -3.5468   -6.3585 H   0  0  0  0  0  0
   -5.0458   -7.4066  -12.3175 H   0  0  0  0  0  0
   -6.7582   -7.2797   -9.8278 H   0  0  0  0  0  0
  1  2  1  0  0  0
  2  3  1  0  0  0
  3  4  1  0  0  0
  4  5  1  0  0  0
  5  6  1  0  0  0
  5  7  1  0  0  0
  7  8  1  0  0  0
  7 39  1  0  0  0
  8  9  1  0  0  0
  8 27  1  0  0  0
  9 10  1  0  0  0
 10 11  1  0  0  0
 10 12  1  0  0  0
 12 13  1  0  0  0
 13 14  1  0  0  0
 13 26  1  0  0  0
 14 15  1  0  0  0
 15 16  1  0  0  0
 16 17  1  0  0  0
 17 18  1  0  0  0
 18 19  1  0  0  0
 18 25  1  0  0  0
 19 20  1  0  0  0
 20 21  1  0  0  0
 20 24  1  0  0  0
 21 22  1  0  0  0
 21 23  1  0  0  0
 23 51  1  0  0  0
 23 52  1  0  0  0
 24 53  1  0  0  0
 25 54  1  0  0  0
 26 55  1  0  0  0
 27 28  1  0  0  0
 28 29  2  0  0  0
 28 30  1  0  0  0
 30 31  1  0  0  0
 31 32  1  0  0  0
 31 36  1  0  0  0
 32 33  1  0  0  0
 33 34  2  0  0  0
 33 35  1  0  0  0
 35 56  1  0  0  0
 36 37  2  0  0  0
 36 38  1  0  0  0
 38 57  1  0  0  0
 39 40  1  0  0  0
 40 41  2  0  0  0
 40 42  1  0  0  0
 42 43  1  0  0  0
 43 44  1  0  0  0
 43 48  1  0  0  0
 44 45  1  0  0  0
 45 46  2  0  0  0
 45 47  1  0  0  0
 47 58  1  0  0  0
 48 49  2  0  0  0
 48 50  1  0  0  0
 50 59  1  0  0  0
M  END
>  <AUTHOR>
    GENERATED BY OPEN BABEL 2.4.1

>  <CHROM.1>
85.19404623,-151.00558119,60.04629366,37.19932171,84.12492245,100.92485772
-23.47982212,150.47599024,87.10222488,154.43779788,176.23576179,177.73042996
171.13386283,173.87066135,128.04802829,170.91898679,68.38787528,-171.93754976
-105.30905841,178.51543002,-50.99684706,85.16993600,33.50960942,113.33552656
-82.58481188,-20.49116669,-133.75392967,116.54968928,130.83823213,-166.56664207
2.17320294,-54.56321723,-48.34992502,130.37119697,90.38330359,127.51490361
110.40239267,-128.93526614,4.63308284,-2.68085008,-1.76346690,-7.15848196
3.04409279,-0.50436023,-1.84410160

>  <COMPND>
    UNNAMED

>  <MASTER>
        0    0    0    0    0    0    0    0  109    0  109    0

>  <Name>
FB1.pdb

>  <RI>
0

>  <Rbt.Current_Directory>
/home/fc/tossine/FB1_39/p3/0_clust04

>  <Rbt.Executable>
rbdock/0.1.0

>  <Rbt.Library>
librxdock.so/0.1.0

>  <Rbt.Parameter_File>
/cluster/rxdock/data/scripts/dock.prm

>  <Rbt.Receptor>
rx_4.prm

>  <SCORE>
45.1578

>  <SCORE.INTER>
7.67442

>  <SCORE.INTER.CONST>
1

>  <SCORE.INTER.POLAR>
-3.96351

>  <SCORE.INTER.REPUL>
1.32644

>  <SCORE.INTER.ROT>
32

>  <SCORE.INTER.VDW>
-22.8819

>  <SCORE.INTER.norm>
0.153488

>  <SCORE.INTRA>
33.5779

>  <SCORE.INTRA.DIHEDRAL>
70.261

>  <SCORE.INTRA.DIHEDRAL.0>
47.3121

>  <SCORE.INTRA.POLAR>
-0.196387

>  <SCORE.INTRA.POLAR.0>
-1.47808

>  <SCORE.INTRA.REPUL>
0

>  <SCORE.INTRA.REPUL.0>
0

>  <SCORE.INTRA.VDW>
-0.884873

>  <SCORE.INTRA.VDW.0>
-2.78316

>  <SCORE.INTRA.norm>
0.671558

>  <SCORE.RESTR>
3.90543

>  <SCORE.RESTR.CAVITY>
3.90543

>  <SCORE.RESTR.norm>
0.0781086

>  <SCORE.SYSTEM>
0

>  <SCORE.SYSTEM.CONST>
0

>  <SCORE.SYSTEM.DIHEDRAL>
0

>  <SCORE.SYSTEM.norm>
0

>  <SCORE.heavy>
50

>  <SCORE.norm>
0.903155

$$$$
