FB1.pdb
  RxDock  10062019593D
librxdock.so/0.1.0
 59 58  0  0  0  0  0  0  0  0999 V2000
  -13.3933   -3.1634  -17.0343 C   0  0  0  0  0  0
  -12.0807   -3.0969  -17.8114 C   0  0  0  0  0  0
  -10.8706   -3.3978  -16.9118 C   0  0  0  0  0  0
  -10.4885   -4.8986  -16.8723 C   0  0  0  0  0  0
   -8.9534   -5.1868  -16.7276 C   0  0  0  0  0  0
   -8.5253   -4.8255  -15.2865 C   0  0  0  0  0  0
   -8.5537   -6.6813  -17.0806 C   0  0  0  0  0  0
   -8.1461   -7.6317  -15.8571 C   0  0  0  0  0  0
   -8.8987   -7.6956  -14.4579 C   0  0  0  0  0  0
   -7.9182   -7.6320  -13.1328 C   0  0  0  0  0  0
   -6.6770   -6.8144  -13.4864 C   0  0  0  0  0  0
   -8.5759   -7.0559  -11.7985 C   0  0  0  0  0  0
   -7.8145   -6.0738  -10.7621 C   0  0  0  0  0  0
   -6.2894   -6.2202  -10.4321 C   0  0  0  0  0  0
   -5.7509   -5.6157   -9.0560 C   0  0  0  0  0  0
   -5.9175   -4.1060   -8.6229 C   0  0  0  0  0  0
   -7.2548   -3.6344   -7.9929 C   0  0  0  0  0  0
   -7.2136   -2.2834   -7.1792 C   0  0  0  0  0  0
   -8.2787   -2.1145   -6.0884 C   0  0  0  0  0  0
   -8.5581   -3.3138   -5.1387 C   0  0  0  0  0  0
   -7.4162   -3.9164   -4.2679 C   0  0  0  0  0  0
   -7.3384   -3.4355   -2.8256 C   0  0  0  0  0  0
   -7.4280   -5.3902   -4.3325 N   0  0  0  0  0  0
   -9.5302   -2.8104   -4.1872 O   0  0  0  0  0  0
   -5.9210   -2.1715   -6.5738 O   0  0  0  0  0  0
   -7.9511   -4.7601  -11.3296 O   0  0  0  0  0  0
   -8.2086   -8.9932  -16.3618 O   0  0  0  0  0  0
   -7.3394   -9.8898  -15.8272 C   0  0  0  0  0  0
   -6.6888   -9.7426  -14.8102 O   0  0  0  0  0  0
   -7.3876  -11.1480  -16.6495 C   0  0  0  0  0  0
   -6.7027  -12.3349  -15.9533 C   0  0  0  0  0  0
   -7.6973  -13.2332  -15.2068 C   0  0  0  0  0  0
   -8.7803  -13.7349  -16.1335 C   0  0  0  0  0  0
   -8.7560  -13.5834  -17.3501 O   0  0  0  0  0  0
   -9.7772  -14.3675  -15.4972 O   0  0  0  0  0  0
   -6.0070  -13.1320  -17.0652 C   0  0  0  0  0  0
   -5.0013  -13.7997  -16.8780 O   0  0  0  0  0  0
   -6.5662  -12.9965  -18.2756 O   0  0  0  0  0  0
   -9.5675   -7.3134  -17.9595 O   0  0  0  0  0  0
   -9.7398   -6.8071  -19.2370 C   0  0  0  0  0  0
   -9.3130   -5.7260  -19.6210 O   0  0  0  0  0  0
  -10.5356   -7.7589  -20.1399 C   0  0  0  0  0  0
   -9.7725   -8.3072  -21.3855 C   0  0  0  0  0  0
   -8.9822   -7.3063  -22.2480 C   0  0  0  0  0  0
   -9.6215   -5.9489  -22.3056 C   0  0  0  0  0  0
  -10.8206   -5.7209  -22.2236 O   0  0  0  0  0  0
   -8.7215   -4.9632  -22.4423 O   0  0  0  0  0  0
   -8.8391   -9.4884  -21.0925 C   0  0  0  0  0  0
   -7.6334   -9.4272  -21.2311 O   0  0  0  0  0  0
   -9.4330  -10.5789  -20.5639 O   0  0  0  0  0  0
   -8.2623   -5.7385   -3.8623 H   0  0  0  0  0  0
   -6.6455   -5.7476   -3.7798 H   0  0  0  0  0  0
   -9.8139   -3.6017   -3.6824 H   0  0  0  0  0  0
   -5.8939   -1.3397   -6.0660 H   0  0  0  0  0  0
   -7.5807   -4.1200  -10.6990 H   0  0  0  0  0  0
  -10.6139  -14.4344  -15.9962 H   0  0  0  0  0  0
   -6.1167  -13.5065  -18.9944 H   0  0  0  0  0  0
   -9.2154   -4.1193  -22.3694 H   0  0  0  0  0  0
  -10.4158  -10.5663  -20.5707 H   0  0  0  0  0  0
  1  2  1  0  0  0
  2  3  1  0  0  0
  3  4  1  0  0  0
  4  5  1  0  0  0
  5  6  1  0  0  0
  5  7  1  0  0  0
  7  8  1  0  0  0
  7 39  1  0  0  0
  8  9  1  0  0  0
  8 27  1  0  0  0
  9 10  1  0  0  0
 10 11  1  0  0  0
 10 12  1  0  0  0
 12 13  1  0  0  0
 13 14  1  0  0  0
 13 26  1  0  0  0
 14 15  1  0  0  0
 15 16  1  0  0  0
 16 17  1  0  0  0
 17 18  1  0  0  0
 18 19  1  0  0  0
 18 25  1  0  0  0
 19 20  1  0  0  0
 20 21  1  0  0  0
 20 24  1  0  0  0
 21 22  1  0  0  0
 21 23  1  0  0  0
 23 51  1  0  0  0
 23 52  1  0  0  0
 24 53  1  0  0  0
 25 54  1  0  0  0
 26 55  1  0  0  0
 27 28  1  0  0  0
 28 29  2  0  0  0
 28 30  1  0  0  0
 30 31  1  0  0  0
 31 32  1  0  0  0
 31 36  1  0  0  0
 32 33  1  0  0  0
 33 34  2  0  0  0
 33 35  1  0  0  0
 35 56  1  0  0  0
 36 37  2  0  0  0
 36 38  1  0  0  0
 38 57  1  0  0  0
 39 40  1  0  0  0
 40 41  2  0  0  0
 40 42  1  0  0  0
 42 43  1  0  0  0
 43 44  1  0  0  0
 43 48  1  0  0  0
 44 45  1  0  0  0
 45 46  2  0  0  0
 45 47  1  0  0  0
 47 58  1  0  0  0
 48 49  2  0  0  0
 48 50  1  0  0  0
 50 59  1  0  0  0
M  END
>  <AUTHOR>
    GENERATED BY OPEN BABEL 2.4.1

>  <CHROM.1>
90.62155433,146.32220144,71.94863738,-107.63963437,42.47544034,65.33147028
-132.23723628,148.32874160,29.91421454,-140.12610860,-36.81604452,-157.43161556
174.73562635,-56.55332758,81.77295801,161.21806421,-154.29927408,44.79471122
-179.69213579,58.60558968,97.42461506,171.11103288,-68.27506932,14.53480469
-166.46420403,96.55235216,56.19462251,151.55200965,8.95706425,160.15117564
179.74169866,-14.74338933,-117.28395576,-46.85581986,-33.34724701,-115.83588778
-30.02892115,-173.80309556,10.49955516,-8.35444922,-7.20719864,-14.61487851
1.83150607,1.20283517,-2.20570965

>  <COMPND>
    UNNAMED

>  <MASTER>
        0    0    0    0    0    0    0    0  109    0  109    0

>  <Name>
FB1.pdb

>  <RI>
0

>  <Rbt.Current_Directory>
/home/fc/tossine/FB1_39/p3/0_clust04

>  <Rbt.Executable>
rbdock/0.1.0

>  <Rbt.Library>
librxdock.so/0.1.0

>  <Rbt.Parameter_File>
/cluster/rxdock/data/scripts/dock.prm

>  <Rbt.Receptor>
rx_0.prm

>  <SCORE>
28.8181

>  <SCORE.INTER>
1.6348

>  <SCORE.INTER.CONST>
1

>  <SCORE.INTER.POLAR>
-1.7173

>  <SCORE.INTER.REPUL>
0.331329

>  <SCORE.INTER.ROT>
32

>  <SCORE.INTER.VDW>
-31.583

>  <SCORE.INTER.norm>
0.0326961

>  <SCORE.INTRA>
26.5714

>  <SCORE.INTRA.DIHEDRAL>
22.0354

>  <SCORE.INTRA.DIHEDRAL.0>
47.3121

>  <SCORE.INTRA.POLAR>
1.47808

>  <SCORE.INTRA.POLAR.0>
-1.47808

>  <SCORE.INTRA.REPUL>
0.00803675

>  <SCORE.INTRA.REPUL.0>
0

>  <SCORE.INTRA.VDW>
10.488

>  <SCORE.INTRA.VDW.0>
-2.78316

>  <SCORE.INTRA.norm>
0.531428

>  <SCORE.RESTR>
0.611953

>  <SCORE.RESTR.CAVITY>
0.611953

>  <SCORE.RESTR.norm>
0.0122391

>  <SCORE.SYSTEM>
0

>  <SCORE.SYSTEM.CONST>
0

>  <SCORE.SYSTEM.DIHEDRAL>
0

>  <SCORE.SYSTEM.norm>
0

>  <SCORE.heavy>
50

>  <SCORE.norm>
0.576363

$$$$
