FB1.pdb
  RxDock  10062020003D
librxdock.so/0.1.0
 59 58  0  0  0  0  0  0  0  0999 V2000
  -11.1581   -1.8052  -15.1004 C   0  0  0  0  0  0
   -9.6567   -1.7387  -14.8309 C   0  0  0  0  0  0
   -9.1391   -3.0272  -14.1704 C   0  0  0  0  0  0
   -9.2631   -4.2780  -15.0757 C   0  0  0  0  0  0
   -9.2868   -5.6478  -14.3118 C   0  0  0  0  0  0
   -9.7810   -6.7399  -15.2884 C   0  0  0  0  0  0
   -7.8867   -6.0442  -13.6787 C   0  0  0  0  0  0
   -7.7029   -5.7908  -12.1077 C   0  0  0  0  0  0
   -6.3119   -5.7912  -11.3373 C   0  0  0  0  0  0
   -6.4069   -5.4710   -9.7219 C   0  0  0  0  0  0
   -5.1916   -6.0890   -9.0326 C   0  0  0  0  0  0
   -6.5275   -3.9330   -9.3159 C   0  0  0  0  0  0
   -7.0043   -3.4135   -7.8594 C   0  0  0  0  0  0
   -7.2726   -4.3918   -6.6648 C   0  0  0  0  0  0
   -7.7558   -3.7743   -5.2740 C   0  0  0  0  0  0
   -6.8167   -2.9882   -4.2766 C   0  0  0  0  0  0
   -6.1413   -3.7470   -3.1038 C   0  0  0  0  0  0
   -5.3239   -5.0430   -3.4796 C   0  0  0  0  0  0
   -4.1073   -4.8385   -4.3910 C   0  0  0  0  0  0
   -3.6761   -6.0094   -5.3191 C   0  0  0  0  0  0
   -3.1619   -7.3497   -4.7152 C   0  0  0  0  0  0
   -3.0827   -8.5353   -5.6668 C   0  0  0  0  0  0
   -1.8805   -7.1517   -4.0116 N   0  0  0  0  0  0
   -4.8793   -6.3630   -6.0479 O   0  0  0  0  0  0
   -4.8829   -5.6554   -2.2630 O   0  0  0  0  0  0
   -5.9445   -2.5530   -7.4088 O   0  0  0  0  0  0
   -8.2621   -4.4763  -11.8399 O   0  0  0  0  0  0
   -9.0416   -4.3510  -10.7344 C   0  0  0  0  0  0
   -9.1580   -5.1670   -9.8400 O   0  0  0  0  0  0
   -9.6663   -2.9831  -10.7450 C   0  0  0  0  0  0
  -11.2019   -3.0351  -10.7054 C   0  0  0  0  0  0
  -11.8484   -1.7514  -11.2417 C   0  0  0  0  0  0
  -13.1180   -1.4254  -10.4901 C   0  0  0  0  0  0
  -14.2339   -1.4576  -10.9975 O   0  0  0  0  0  0
  -12.9097   -1.0967   -9.2066 O   0  0  0  0  0  0
  -11.6061   -4.2311  -11.5784 C   0  0  0  0  0  0
  -12.1857   -5.2124  -11.1383 O   0  0  0  0  0  0
  -11.2264   -4.1339  -12.8599 O   0  0  0  0  0  0
   -7.4934   -7.4202  -14.0680 O   0  0  0  0  0  0
   -6.7472   -7.5907  -15.2222 C   0  0  0  0  0  0
   -6.4002   -6.6837  -15.9674 O   0  0  0  0  0  0
   -6.3922   -9.0618  -15.4760 C   0  0  0  0  0  0
   -7.5987  -10.0495  -15.5331 C   0  0  0  0  0  0
   -8.7367   -9.7448  -16.5244 C   0  0  0  0  0  0
   -8.2892   -9.7716  -17.9574 C   0  0  0  0  0  0
   -8.4597  -10.6955  -18.7410 O   0  0  0  0  0  0
   -7.6755   -8.6363  -18.3247 O   0  0  0  0  0  0
   -7.2099  -11.5203  -15.7281 C   0  0  0  0  0  0
   -7.6203  -12.4122  -15.0120 O   0  0  0  0  0  0
   -6.4608  -11.7818  -16.8197 O   0  0  0  0  0  0
   -1.4174   -8.0528   -3.9011 H   0  0  0  0  0  0
   -2.0763   -6.8376   -3.0585 H   0  0  0  0  0  0
   -5.0882   -5.5666   -6.5803 H   0  0  0  0  0  0
   -5.6678   -5.8505   -1.7187 H   0  0  0  0  0  0
   -5.2976   -3.0980   -6.9303 H   0  0  0  0  0  0
  -13.7173   -0.9475   -8.6784 H   0  0  0  0  0  0
  -11.5002   -4.8963  -13.4277 H   0  0  0  0  0  0
   -7.4477   -8.7339  -19.2733 H   0  0  0  0  0  0
   -6.2032  -10.9953  -17.3501 H   0  0  0  0  0  0
  1  2  1  0  0  0
  2  3  1  0  0  0
  3  4  1  0  0  0
  4  5  1  0  0  0
  5  6  1  0  0  0
  5  7  1  0  0  0
  7  8  1  0  0  0
  7 39  1  0  0  0
  8  9  1  0  0  0
  8 27  1  0  0  0
  9 10  1  0  0  0
 10 11  1  0  0  0
 10 12  1  0  0  0
 12 13  1  0  0  0
 13 14  1  0  0  0
 13 26  1  0  0  0
 14 15  1  0  0  0
 15 16  1  0  0  0
 16 17  1  0  0  0
 17 18  1  0  0  0
 18 19  1  0  0  0
 18 25  1  0  0  0
 19 20  1  0  0  0
 20 21  1  0  0  0
 20 24  1  0  0  0
 21 22  1  0  0  0
 21 23  1  0  0  0
 23 51  1  0  0  0
 23 52  1  0  0  0
 24 53  1  0  0  0
 25 54  1  0  0  0
 26 55  1  0  0  0
 27 28  1  0  0  0
 28 29  2  0  0  0
 28 30  1  0  0  0
 30 31  1  0  0  0
 31 32  1  0  0  0
 31 36  1  0  0  0
 32 33  1  0  0  0
 33 34  2  0  0  0
 33 35  1  0  0  0
 35 56  1  0  0  0
 36 37  2  0  0  0
 36 38  1  0  0  0
 38 57  1  0  0  0
 39 40  1  0  0  0
 40 41  2  0  0  0
 40 42  1  0  0  0
 42 43  1  0  0  0
 43 44  1  0  0  0
 43 48  1  0  0  0
 44 45  1  0  0  0
 45 46  2  0  0  0
 45 47  1  0  0  0
 47 58  1  0  0  0
 48 49  2  0  0  0
 48 50  1  0  0  0
 50 59  1  0  0  0
M  END
>  <AUTHOR>
    GENERATED BY OPEN BABEL 2.4.1

>  <CHROM.1>
64.65762737,-157.40971519,165.28608600,101.07334326,-165.07570939,90.13042652
178.77532910,136.43875922,155.26020251,163.76372817,5.56047491,-179.32466876
-89.22210278,-74.20773007,-94.81004767,52.70462228,62.75241376,-151.59664075
57.77060269,-64.68690354,165.81206366,64.00265208,-161.31047265,11.85939655
122.42179839,-158.13113996,-145.12383626,116.57641322,-113.24094998,-175.51732728
-178.95474750,-1.22470381,55.37777202,54.81637795,63.09627574,128.78668620
100.63709771,-178.20595138,3.06484049,-7.87045477,-5.67226036,-11.01599814
1.92473820,0.75400844,-2.09907862

>  <COMPND>
    UNNAMED

>  <MASTER>
        0    0    0    0    0    0    0    0  109    0  109    0

>  <Name>
FB1.pdb

>  <RI>
0

>  <Rbt.Current_Directory>
/home/fc/tossine/FB1_39/p3/0_clust04

>  <Rbt.Executable>
rbdock/0.1.0

>  <Rbt.Library>
librxdock.so/0.1.0

>  <Rbt.Parameter_File>
/cluster/rxdock/data/scripts/dock.prm

>  <Rbt.Receptor>
rx_0.prm

>  <SCORE>
14.4806

>  <SCORE.INTER>
6.30387

>  <SCORE.INTER.CONST>
1

>  <SCORE.INTER.POLAR>
-1.23991

>  <SCORE.INTER.REPUL>
0.654196

>  <SCORE.INTER.ROT>
32

>  <SCORE.INTER.VDW>
-30.1514

>  <SCORE.INTER.norm>
0.126077

>  <SCORE.INTRA>
7.18555

>  <SCORE.INTRA.DIHEDRAL>
6.78681

>  <SCORE.INTRA.DIHEDRAL.0>
47.3121

>  <SCORE.INTRA.POLAR>
1.47808

>  <SCORE.INTRA.POLAR.0>
-1.47808

>  <SCORE.INTRA.REPUL>
0.0983549

>  <SCORE.INTRA.REPUL.0>
0

>  <SCORE.INTRA.VDW>
-1.72509

>  <SCORE.INTRA.VDW.0>
-2.78316

>  <SCORE.INTRA.norm>
0.143711

>  <SCORE.RESTR>
0.991218

>  <SCORE.RESTR.CAVITY>
0.991218

>  <SCORE.RESTR.norm>
0.0198244

>  <SCORE.SYSTEM>
0

>  <SCORE.SYSTEM.CONST>
0

>  <SCORE.SYSTEM.DIHEDRAL>
0

>  <SCORE.SYSTEM.norm>
0

>  <SCORE.heavy>
50

>  <SCORE.norm>
0.289613

$$$$
