FB1.pdb
  RxDock  10062021503D
librxdock.so/0.1.0
 59 58  0  0  0  0  0  0  0  0999 V2000
   -9.8188   -2.3948   -3.3433 C   0  0  0  0  0  0
   -8.5672   -3.2624   -3.4537 C   0  0  0  0  0  0
   -7.6574   -2.8053   -4.6059 C   0  0  0  0  0  0
   -8.3792   -2.7424   -5.9751 C   0  0  0  0  0  0
   -7.5230   -2.1491   -7.1477 C   0  0  0  0  0  0
   -6.1199   -1.8033   -6.5977 C   0  0  0  0  0  0
   -7.4183   -3.1113   -8.4052 C   0  0  0  0  0  0
   -7.4823   -4.6865   -8.1209 C   0  0  0  0  0  0
   -6.7365   -5.8014   -8.9747 C   0  0  0  0  0  0
   -7.5734   -6.3566  -10.2834 C   0  0  0  0  0  0
   -8.3502   -5.1906  -10.8927 C   0  0  0  0  0  0
   -6.7105   -7.0749  -11.4167 C   0  0  0  0  0  0
   -7.3410   -7.7590  -12.7407 C   0  0  0  0  0  0
   -6.5110   -7.9716  -14.0530 C   0  0  0  0  0  0
   -6.9697   -9.1214  -15.0613 C   0  0  0  0  0  0
   -8.4632   -9.6035  -15.2393 C   0  0  0  0  0  0
   -9.5677   -8.5649  -15.5694 C   0  0  0  0  0  0
   -9.7245   -7.3584  -14.5649 C   0  0  0  0  0  0
  -10.2144   -6.0345  -15.1645 C   0  0  0  0  0  0
  -10.0797   -4.7429  -14.3089 C   0  0  0  0  0  0
  -10.7911   -3.4276  -14.7440 C   0  0  0  0  0  0
  -10.4185   -2.1689  -13.9731 C   0  0  0  0  0  0
  -10.6582   -3.2144  -16.1977 N   0  0  0  0  0  0
  -10.6729   -5.0854  -13.0304 O   0  0  0  0  0  0
  -10.6364   -7.7565  -13.5354 O   0  0  0  0  0  0
   -7.7302   -9.0790  -12.3250 O   0  0  0  0  0  0
   -6.9845   -4.8759   -6.7686 O   0  0  0  0  0  0
   -5.6490   -4.7198   -6.5754 C   0  0  0  0  0  0
   -4.8328   -4.3993   -7.4182 O   0  0  0  0  0  0
   -5.3541   -4.9109   -5.1132 C   0  0  0  0  0  0
   -3.8501   -5.0474   -4.8272 C   0  0  0  0  0  0
   -3.4586   -4.4862   -3.4542 C   0  0  0  0  0  0
   -3.5102   -2.9760   -3.4477 C   0  0  0  0  0  0
   -2.5196   -2.2630   -3.5660 O   0  0  0  0  0  0
   -4.7494   -2.4844   -3.3011 O   0  0  0  0  0  0
   -3.5440   -6.5503   -4.8871 C   0  0  0  0  0  0
   -3.1072   -7.1804   -3.9360 O   0  0  0  0  0  0
   -3.7489   -7.1090   -6.0879 O   0  0  0  0  0  0
   -8.3630   -2.7018   -9.4728 O   0  0  0  0  0  0
   -9.7163   -2.6732   -9.1799 C   0  0  0  0  0  0
  -10.1942   -2.8897   -8.0740 O   0  0  0  0  0  0
  -10.5723   -2.3348  -10.4076 C   0  0  0  0  0  0
  -11.3774   -1.0008  -10.3252 C   0  0  0  0  0  0
  -11.9189   -0.4007  -11.6355 C   0  0  0  0  0  0
  -12.0375    1.0954  -11.5905 C   0  0  0  0  0  0
  -13.0698    1.7343  -11.7417 O   0  0  0  0  0  0
  -10.8639    1.6959  -11.3407 O   0  0  0  0  0  0
  -12.5366   -1.0167   -9.3211 C   0  0  0  0  0  0
  -12.4612   -0.5137   -8.2175 O   0  0  0  0  0  0
  -13.6945   -1.5353   -9.7812 O   0  0  0  0  0  0
  -11.0574   -4.0122  -16.6902 H   0  0  0  0  0  0
   -9.6649   -3.2254  -16.4400 H   0  0  0  0  0  0
  -11.5675   -5.4181  -13.2547 H   0  0  0  0  0  0
  -11.5071   -7.9144  -13.9446 H   0  0  0  0  0  0
   -8.3027   -8.9918  -11.5445 H   0  0  0  0  0  0
   -4.8216   -1.5123   -3.3595 H   0  0  0  0  0  0
   -3.5080   -8.0671   -6.1409 H   0  0  0  0  0  0
  -10.1758    0.9990  -11.3871 H   0  0  0  0  0  0
  -13.6338   -1.9933  -10.6488 H   0  0  0  0  0  0
  1  2  1  0  0  0
  2  3  1  0  0  0
  3  4  1  0  0  0
  4  5  1  0  0  0
  5  6  1  0  0  0
  5  7  1  0  0  0
  7  8  1  0  0  0
  7 39  1  0  0  0
  8  9  1  0  0  0
  8 27  1  0  0  0
  9 10  1  0  0  0
 10 11  1  0  0  0
 10 12  1  0  0  0
 12 13  1  0  0  0
 13 14  1  0  0  0
 13 26  1  0  0  0
 14 15  1  0  0  0
 15 16  1  0  0  0
 16 17  1  0  0  0
 17 18  1  0  0  0
 18 19  1  0  0  0
 18 25  1  0  0  0
 19 20  1  0  0  0
 20 21  1  0  0  0
 20 24  1  0  0  0
 21 22  1  0  0  0
 21 23  1  0  0  0
 23 51  1  0  0  0
 23 52  1  0  0  0
 24 53  1  0  0  0
 25 54  1  0  0  0
 26 55  1  0  0  0
 27 28  1  0  0  0
 28 29  2  0  0  0
 28 30  1  0  0  0
 30 31  1  0  0  0
 31 32  1  0  0  0
 31 36  1  0  0  0
 32 33  1  0  0  0
 33 34  2  0  0  0
 33 35  1  0  0  0
 35 56  1  0  0  0
 36 37  2  0  0  0
 36 38  1  0  0  0
 38 57  1  0  0  0
 39 40  1  0  0  0
 40 41  2  0  0  0
 40 42  1  0  0  0
 42 43  1  0  0  0
 43 44  1  0  0  0
 43 48  1  0  0  0
 44 45  1  0  0  0
 45 46  2  0  0  0
 45 47  1  0  0  0
 47 58  1  0  0  0
 48 49  2  0  0  0
 48 50  1  0  0  0
 50 59  1  0  0  0
M  END
>  <AUTHOR>
    GENERATED BY OPEN BABEL 2.4.1

>  <CHROM.1>
-54.98782527,174.36843129,1.29722709,-30.09811029,-148.39205618,-59.49257786
-87.40154425,-72.72726483,36.07795300,176.60588537,156.66370844,155.98823717
53.62392211,29.74353248,54.23121617,-56.32382345,149.40047568,-166.25850473
-63.82914062,-168.55789536,-170.36207397,-53.98059952,58.29132307,2.23145814
168.00773381,148.43117354,-72.44595438,-118.99259751,-99.84972178,-175.66161300
177.00279503,4.35595050,-116.20499619,162.67840725,-150.99512165,100.86504680
-120.33539415,8.75362335,10.50982244,-8.22788596,-4.12886292,-9.40788163
0.79367952,-0.77509600,0.89904708

>  <COMPND>
    UNNAMED

>  <MASTER>
        0    0    0    0    0    0    0    0  109    0  109    0

>  <Name>
FB1.pdb

>  <RI>
0

>  <Rbt.Current_Directory>
/home/fc/tossine/FB1_39/p3/0_clust04

>  <Rbt.Executable>
rbdock/0.1.0

>  <Rbt.Library>
librxdock.so/0.1.0

>  <Rbt.Parameter_File>
/cluster/rxdock/data/scripts/dock.prm

>  <Rbt.Receptor>
rx_2.prm

>  <SCORE>
20.1023

>  <SCORE.INTER>
1.43116

>  <SCORE.INTER.CONST>
1

>  <SCORE.INTER.POLAR>
-3.43523

>  <SCORE.INTER.REPUL>
1.25132

>  <SCORE.INTER.ROT>
32

>  <SCORE.INTER.VDW>
-30.5456

>  <SCORE.INTER.norm>
0.0286233

>  <SCORE.INTRA>
16.5916

>  <SCORE.INTRA.DIHEDRAL>
1.30952

>  <SCORE.INTRA.DIHEDRAL.0>
47.3121

>  <SCORE.INTRA.POLAR>
1.47808

>  <SCORE.INTRA.POLAR.0>
-1.47808

>  <SCORE.INTRA.REPUL>
0

>  <SCORE.INTRA.REPUL.0>
0

>  <SCORE.INTRA.VDW>
10.9114

>  <SCORE.INTRA.VDW.0>
-2.78316

>  <SCORE.INTRA.norm>
0.331832

>  <SCORE.RESTR>
2.07953

>  <SCORE.RESTR.CAVITY>
2.07953

>  <SCORE.RESTR.norm>
0.0415906

>  <SCORE.SYSTEM>
0

>  <SCORE.SYSTEM.CONST>
0

>  <SCORE.SYSTEM.DIHEDRAL>
0

>  <SCORE.SYSTEM.norm>
0

>  <SCORE.heavy>
50

>  <SCORE.norm>
0.402046

$$$$
