FB1.pdb
  RxDock  10062021483D
librxdock.so/0.1.0
 59 58  0  0  0  0  0  0  0  0999 V2000
   -7.5952   -5.9554  -16.6641 C   0  0  0  0  0  0
   -7.5667   -5.3989  -15.2426 C   0  0  0  0  0  0
   -8.9542   -5.4529  -14.5821 C   0  0  0  0  0  0
   -9.4307   -4.0848  -14.0334 C   0  0  0  0  0  0
   -8.5201   -3.4670  -12.9156 C   0  0  0  0  0  0
   -8.4075   -1.9456  -13.1669 C   0  0  0  0  0  0
   -9.0353   -3.7624  -11.4441 C   0  0  0  0  0  0
   -7.9265   -4.1236  -10.3458 C   0  0  0  0  0  0
   -8.0284   -3.7827   -8.7961 C   0  0  0  0  0  0
   -6.5944   -3.7975   -7.9809 C   0  0  0  0  0  0
   -6.8071   -3.1503   -6.6134 C   0  0  0  0  0  0
   -5.9053   -5.2243   -7.7960 C   0  0  0  0  0  0
   -4.5657   -5.4792   -6.9248 C   0  0  0  0  0  0
   -3.7099   -6.7849   -7.0623 C   0  0  0  0  0  0
   -2.4382   -6.9604   -6.1130 C   0  0  0  0  0  0
   -2.5061   -7.4822   -4.6238 C   0  0  0  0  0  0
   -3.1455   -6.5882   -3.5287 C   0  0  0  0  0  0
   -4.0393   -5.3886   -4.0303 C   0  0  0  0  0  0
   -5.0413   -4.8186   -3.0186 C   0  0  0  0  0  0
   -6.1786   -3.8983   -3.5457 C   0  0  0  0  0  0
   -7.6204   -4.0119   -2.9679 C   0  0  0  0  0  0
   -8.6117   -2.9425   -3.4051 C   0  0  0  0  0  0
   -8.1703   -5.3628   -3.1893 N   0  0  0  0  0  0
   -5.7465   -2.5538   -3.2151 O   0  0  0  0  0  0
   -3.1674   -4.3337   -4.4505 O   0  0  0  0  0  0
   -3.6783   -4.4087   -7.2896 O   0  0  0  0  0  0
   -7.7692   -5.5680  -10.3869 O   0  0  0  0  0  0
   -7.2087   -6.0958  -11.5061 C   0  0  0  0  0  0
   -6.3718   -5.5644  -12.2108 O   0  0  0  0  0  0
   -7.7210   -7.4991  -11.6785 C   0  0  0  0  0  0
   -8.9005   -7.5805  -12.6606 C   0  0  0  0  0  0
   -9.4025   -9.0164  -12.8600 C   0  0  0  0  0  0
   -9.0078   -9.5481  -14.2182 C   0  0  0  0  0  0
   -8.4491  -10.6264  -14.3883 O   0  0  0  0  0  0
   -9.3293   -8.7260  -15.2279 O   0  0  0  0  0  0
  -10.0137   -6.7141  -12.0555 C   0  0  0  0  0  0
  -10.0807   -6.4502  -10.8646 O   0  0  0  0  0  0
  -10.9393   -6.3088  -12.9359 O   0  0  0  0  0  0
   -9.9542   -2.6970  -10.9745 O   0  0  0  0  0  0
  -11.1909   -2.5766  -11.5860 C   0  0  0  0  0  0
  -11.7670   -3.4812  -12.1762 O   0  0  0  0  0  0
  -11.7772   -1.1657  -11.4447 C   0  0  0  0  0  0
  -12.5734   -0.6365  -12.6777 C   0  0  0  0  0  0
  -12.9621    0.8531  -12.7027 C   0  0  0  0  0  0
  -12.3435    1.6395  -11.5831 C   0  0  0  0  0  0
  -11.5778    2.5846  -11.7132 O   0  0  0  0  0  0
  -12.7359    1.2078  -10.3748 O   0  0  0  0  0  0
  -11.9372   -0.9613  -14.0349 C   0  0  0  0  0  0
  -11.2931   -1.9717  -14.2373 O   0  0  0  0  0  0
  -12.2279   -0.0998  -15.0322 O   0  0  0  0  0  0
   -8.8780   -5.5555   -2.4818 H   0  0  0  0  0  0
   -7.4318   -6.0485   -3.0167 H   0  0  0  0  0  0
   -5.7886   -2.5149   -2.2363 H   0  0  0  0  0  0
   -3.7101   -3.6365   -4.8626 H   0  0  0  0  0  0
   -4.0222   -3.5872   -6.9006 H   0  0  0  0  0  0
   -9.8691   -7.9514  -14.9788 H   0  0  0  0  0  0
  -11.5151   -5.5710  -12.6151 H   0  0  0  0  0  0
  -12.2471    1.7412   -9.7131 H   0  0  0  0  0  0
  -11.7142   -0.2277  -15.8604 H   0  0  0  0  0  0
  1  2  1  0  0  0
  2  3  1  0  0  0
  3  4  1  0  0  0
  4  5  1  0  0  0
  5  6  1  0  0  0
  5  7  1  0  0  0
  7  8  1  0  0  0
  7 39  1  0  0  0
  8  9  1  0  0  0
  8 27  1  0  0  0
  9 10  1  0  0  0
 10 11  1  0  0  0
 10 12  1  0  0  0
 12 13  1  0  0  0
 13 14  1  0  0  0
 13 26  1  0  0  0
 14 15  1  0  0  0
 15 16  1  0  0  0
 16 17  1  0  0  0
 17 18  1  0  0  0
 18 19  1  0  0  0
 18 25  1  0  0  0
 19 20  1  0  0  0
 20 21  1  0  0  0
 20 24  1  0  0  0
 21 22  1  0  0  0
 21 23  1  0  0  0
 23 51  1  0  0  0
 23 52  1  0  0  0
 24 53  1  0  0  0
 25 54  1  0  0  0
 26 55  1  0  0  0
 27 28  1  0  0  0
 28 29  2  0  0  0
 28 30  1  0  0  0
 30 31  1  0  0  0
 31 32  1  0  0  0
 31 36  1  0  0  0
 32 33  1  0  0  0
 33 34  2  0  0  0
 33 35  1  0  0  0
 35 56  1  0  0  0
 36 37  2  0  0  0
 36 38  1  0  0  0
 38 57  1  0  0  0
 39 40  1  0  0  0
 40 41  2  0  0  0
 40 42  1  0  0  0
 42 43  1  0  0  0
 43 44  1  0  0  0
 43 48  1  0  0  0
 44 45  1  0  0  0
 45 46  2  0  0  0
 45 47  1  0  0  0
 47 58  1  0  0  0
 48 49  2  0  0  0
 48 50  1  0  0  0
 50 59  1  0  0  0
M  END
>  <AUTHOR>
    GENERATED BY OPEN BABEL 2.4.1

>  <CHROM.1>
-125.79875444,-61.27193914,139.70464080,139.41571419,148.85582030,67.98128904
-160.58513416,68.13634224,167.21580541,-174.65342344,-163.52734719,-177.61553061
71.59604657,82.27442922,-69.73151425,16.32010635,159.44084906,-164.86269037
173.09187163,140.06909740,171.68671250,-68.23012213,154.60730100,31.59852538
97.13609361,178.72331381,-107.15968935,-22.85343829,129.32574937,-7.26609125
-164.76511737,23.63435450,143.41574301,-168.99703029,7.68146667,32.09545114
119.06885647,176.87735353,171.00833642,-8.22452190,-4.33993743,-10.04460207
-2.59508420,-0.88690391,0.88653856

>  <COMPND>
    UNNAMED

>  <MASTER>
        0    0    0    0    0    0    0    0  109    0  109    0

>  <Name>
FB1.pdb

>  <RI>
0

>  <Rbt.Current_Directory>
/home/fc/tossine/FB1_39/p3/0_clust04

>  <Rbt.Executable>
rbdock/0.1.0

>  <Rbt.Library>
librxdock.so/0.1.0

>  <Rbt.Parameter_File>
/cluster/rxdock/data/scripts/dock.prm

>  <Rbt.Receptor>
rx_2.prm

>  <SCORE>
29.7774

>  <SCORE.INTER>
13.0441

>  <SCORE.INTER.CONST>
1

>  <SCORE.INTER.POLAR>
-1.35531

>  <SCORE.INTER.REPUL>
0.533717

>  <SCORE.INTER.ROT>
32

>  <SCORE.INTER.VDW>
-22.4165

>  <SCORE.INTER.norm>
0.260881

>  <SCORE.INTRA>
13.0542

>  <SCORE.INTRA.DIHEDRAL>
25.6404

>  <SCORE.INTRA.DIHEDRAL.0>
47.3121

>  <SCORE.INTRA.POLAR>
0.494215

>  <SCORE.INTRA.POLAR.0>
-1.47808

>  <SCORE.INTRA.REPUL>
0

>  <SCORE.INTRA.REPUL.0>
0

>  <SCORE.INTRA.VDW>
-1.44629

>  <SCORE.INTRA.VDW.0>
-2.78316

>  <SCORE.INTRA.norm>
0.261085

>  <SCORE.RESTR>
3.67915

>  <SCORE.RESTR.CAVITY>
3.67915

>  <SCORE.RESTR.norm>
0.0735831

>  <SCORE.SYSTEM>
0

>  <SCORE.SYSTEM.CONST>
0

>  <SCORE.SYSTEM.DIHEDRAL>
0

>  <SCORE.SYSTEM.norm>
0

>  <SCORE.heavy>
50

>  <SCORE.norm>
0.595549

$$$$
