FB1.pdb
  RxDock  10062019513D
librxdock.so/0.1.0
 59 58  0  0  0  0  0  0  0  0999 V2000
   -9.9363  -13.0843  -19.1381 C   0  0  0  0  0  0
   -8.7208  -12.1652  -19.0427 C   0  0  0  0  0  0
   -9.0885  -10.7022  -19.3408 C   0  0  0  0  0  0
   -7.9783   -9.6947  -18.9508 C   0  0  0  0  0  0
   -7.5425   -9.7408  -17.4446 C   0  0  0  0  0  0
   -6.2801   -8.8639  -17.2774 C   0  0  0  0  0  0
   -8.6850   -9.2881  -16.4407 C   0  0  0  0  0  0
   -8.3544   -9.3799  -14.8760 C   0  0  0  0  0  0
   -9.0041   -8.4665  -13.7483 C   0  0  0  0  0  0
   -7.9604   -7.9480  -12.5807 C   0  0  0  0  0  0
   -6.7201   -7.3705  -13.2606 C   0  0  0  0  0  0
   -8.5412   -6.8890  -11.5386 C   0  0  0  0  0  0
   -8.0790   -5.3398  -11.4659 C   0  0  0  0  0  0
   -6.6079   -4.9169  -11.1297 C   0  0  0  0  0  0
   -5.9815   -5.3938   -9.7407 C   0  0  0  0  0  0
   -6.3544   -4.7721   -8.3375 C   0  0  0  0  0  0
   -7.7010   -5.1517   -7.6666 C   0  0  0  0  0  0
   -7.8204   -4.8749   -6.1180 C   0  0  0  0  0  0
   -6.6156   -5.2813   -5.2603 C   0  0  0  0  0  0
   -6.0462   -4.2447   -4.2505 C   0  0  0  0  0  0
   -4.8664   -4.6243   -3.3074 C   0  0  0  0  0  0
   -5.2394   -5.0597   -1.8972 C   0  0  0  0  0  0
   -3.9794   -5.6141   -3.9476 N   0  0  0  0  0  0
   -5.5344   -3.1686   -5.0776 O   0  0  0  0  0  0
   -8.0563   -3.4745   -5.9365 O   0  0  0  0  0  0
   -8.3280   -4.8178  -12.7820 O   0  0  0  0  0  0
   -8.6794  -10.7374  -14.4710 O   0  0  0  0  0  0
   -7.8226  -11.7183  -14.8572 C   0  0  0  0  0  0
   -6.6841  -11.8767  -14.4596 O   0  0  0  0  0  0
   -8.5507  -12.6461  -15.7902 C   0  0  0  0  0  0
   -9.4560  -13.6407  -15.0462 C   0  0  0  0  0  0
  -10.6499  -12.9564  -14.3681 C   0  0  0  0  0  0
  -11.6325  -13.9744  -13.8376 C   0  0  0  0  0  0
  -11.5202  -15.1825  -14.0159 O   0  0  0  0  0  0
  -12.6454  -13.4302  -13.1472 O   0  0  0  0  0  0
   -9.9523  -14.6338  -16.1061 C   0  0  0  0  0  0
   -9.2869  -15.5814  -16.4956 O   0  0  0  0  0  0
  -11.1612  -14.3479  -16.6088 O   0  0  0  0  0  0
   -9.2315   -7.9610  -16.8148 O   0  0  0  0  0  0
  -10.2938   -7.9120  -17.7021 C   0  0  0  0  0  0
  -10.8463   -8.8933  -18.1817 O   0  0  0  0  0  0
  -10.7162   -6.4734  -18.0282 C   0  0  0  0  0  0
   -9.5821   -5.4036  -17.9650 C   0  0  0  0  0  0
   -9.6007   -4.2676  -19.0041 C   0  0  0  0  0  0
   -9.5741   -4.7671  -20.4198 C   0  0  0  0  0  0
  -10.5524   -5.0788  -21.0850 O   0  0  0  0  0  0
   -8.3304   -4.8267  -20.9197 O   0  0  0  0  0  0
   -9.3934   -4.7550  -16.5881 C   0  0  0  0  0  0
  -10.1168   -3.8731  -16.1689 O   0  0  0  0  0  0
   -8.4299   -5.3016  -15.8173 O   0  0  0  0  0  0
   -4.4618   -6.5102   -4.0005 H   0  0  0  0  0  0
   -3.1794   -5.7815   -3.3332 H   0  0  0  0  0  0
   -4.5811   -3.3714   -5.1841 H   0  0  0  0  0  0
   -8.2214   -3.3141   -4.9891 H   0  0  0  0  0  0
   -7.4699   -4.6407  -13.2026 H   0  0  0  0  0  0
  -12.4240  -12.6168  -12.6542 H   0  0  0  0  0  0
  -11.4682  -14.9677  -17.3162 H   0  0  0  0  0  0
   -8.4094   -5.1860  -21.8285 H   0  0  0  0  0  0
   -8.3480   -4.9208  -14.9148 H   0  0  0  0  0  0
  1  2  1  0  0  0
  2  3  1  0  0  0
  3  4  1  0  0  0
  4  5  1  0  0  0
  5  6  1  0  0  0
  5  7  1  0  0  0
  7  8  1  0  0  0
  7 39  1  0  0  0
  8  9  1  0  0  0
  8 27  1  0  0  0
  9 10  1  0  0  0
 10 11  1  0  0  0
 10 12  1  0  0  0
 12 13  1  0  0  0
 13 14  1  0  0  0
 13 26  1  0  0  0
 14 15  1  0  0  0
 15 16  1  0  0  0
 16 17  1  0  0  0
 17 18  1  0  0  0
 18 19  1  0  0  0
 18 25  1  0  0  0
 19 20  1  0  0  0
 20 21  1  0  0  0
 20 24  1  0  0  0
 21 22  1  0  0  0
 21 23  1  0  0  0
 23 51  1  0  0  0
 23 52  1  0  0  0
 24 53  1  0  0  0
 25 54  1  0  0  0
 26 55  1  0  0  0
 27 28  1  0  0  0
 28 29  2  0  0  0
 28 30  1  0  0  0
 30 31  1  0  0  0
 31 32  1  0  0  0
 31 36  1  0  0  0
 32 33  1  0  0  0
 33 34  2  0  0  0
 33 35  1  0  0  0
 35 56  1  0  0  0
 36 37  2  0  0  0
 36 38  1  0  0  0
 38 57  1  0  0  0
 39 40  1  0  0  0
 40 41  2  0  0  0
 40 42  1  0  0  0
 42 43  1  0  0  0
 43 44  1  0  0  0
 43 48  1  0  0  0
 44 45  1  0  0  0
 45 46  2  0  0  0
 45 47  1  0  0  0
 47 58  1  0  0  0
 48 49  2  0  0  0
 48 50  1  0  0  0
 50 59  1  0  0  0
M  END
>  <AUTHOR>
    GENERATED BY OPEN BABEL 2.4.1

>  <CHROM.1>
167.01685510,-57.34775669,170.40280826,176.76745494,152.39445938,88.97154398
-139.10682029,74.18721957,48.87699623,-110.98607497,-62.47055578,-58.42365512
-110.88643688,-74.72828827,76.44871009,161.62486809,-44.36739054,130.87394926
174.29050516,177.15863119,-97.07331336,-95.14148024,-70.64934276,68.33998846
-79.24376802,67.95359493,170.92687812,81.20380054,-4.63175052,-32.27648647
177.83119059,1.98076427,29.60116297,142.93693291,-57.47763094,-78.89215696
86.99058775,178.30369841,-176.38346076,-8.49601888,-8.19759083,-13.74791637
2.93126408,-1.30938915,-0.67259246

>  <COMPND>
    UNNAMED

>  <MASTER>
        0    0    0    0    0    0    0    0  109    0  109    0

>  <Name>
FB1.pdb

>  <RI>
0

>  <Rbt.Current_Directory>
/home/fc/tossine/FB1_39/p3/0_clust04

>  <Rbt.Executable>
rbdock/0.1.0

>  <Rbt.Library>
librxdock.so/0.1.0

>  <Rbt.Parameter_File>
/cluster/rxdock/data/scripts/dock.prm

>  <Rbt.Receptor>
rx_0.prm

>  <SCORE>
34.8516

>  <SCORE.INTER>
12.2465

>  <SCORE.INTER.CONST>
1

>  <SCORE.INTER.POLAR>
-1.85608

>  <SCORE.INTER.REPUL>
1.29761

>  <SCORE.INTER.ROT>
32

>  <SCORE.INTER.VDW>
-25.3309

>  <SCORE.INTER.norm>
0.244929

>  <SCORE.INTRA>
22.4881

>  <SCORE.INTRA.DIHEDRAL>
40.4163

>  <SCORE.INTRA.DIHEDRAL.0>
47.3121

>  <SCORE.INTRA.POLAR>
0.478077

>  <SCORE.INTRA.POLAR.0>
-1.47808

>  <SCORE.INTRA.REPUL>
0

>  <SCORE.INTRA.REPUL.0>
0

>  <SCORE.INTRA.VDW>
0.654539

>  <SCORE.INTRA.VDW.0>
-2.78316

>  <SCORE.INTRA.norm>
0.449763

>  <SCORE.RESTR>
0.11699

>  <SCORE.RESTR.CAVITY>
0.11699

>  <SCORE.RESTR.norm>
0.0023398

>  <SCORE.SYSTEM>
0

>  <SCORE.SYSTEM.CONST>
0

>  <SCORE.SYSTEM.DIHEDRAL>
0

>  <SCORE.SYSTEM.norm>
0

>  <SCORE.heavy>
50

>  <SCORE.norm>
0.697032

$$$$
