FB1.pdb
  RxDock  10062022183D
librxdock.so/0.1.0
 59 58  0  0  0  0  0  0  0  0999 V2000
   -3.2322   -1.8261   -2.4305 C   0  0  0  0  0  0
   -3.3912   -3.0882   -3.2751 C   0  0  0  0  0  0
   -4.5985   -3.9268   -2.8241 C   0  0  0  0  0  0
   -4.8168   -5.2026   -3.6752 C   0  0  0  0  0  0
   -6.1415   -5.2190   -4.5150 C   0  0  0  0  0  0
   -7.3371   -5.1448   -3.5374 C   0  0  0  0  0  0
   -6.2200   -4.0604   -5.5965 C   0  0  0  0  0  0
   -5.6618   -4.3951   -7.0603 C   0  0  0  0  0  0
   -4.4325   -5.3536   -7.3738 C   0  0  0  0  0  0
   -3.5200   -4.9174   -8.6770 C   0  0  0  0  0  0
   -4.3480   -5.1325   -9.9428 C   0  0  0  0  0  0
   -2.9399   -3.4314   -8.6634 C   0  0  0  0  0  0
   -2.3019   -2.7180   -7.3586 C   0  0  0  0  0  0
   -1.3360   -1.4881   -7.4614 C   0  0  0  0  0  0
    0.1573   -1.7382   -7.9678 C   0  0  0  0  0  0
    1.0504   -0.6448   -8.6760 C   0  0  0  0  0  0
    1.7739    0.4253   -7.8165 C   0  0  0  0  0  0
    3.0514   -0.0524   -7.0234 C   0  0  0  0  0  0
    4.4007    0.4743   -7.5279 C   0  0  0  0  0  0
    4.5535    2.0037   -7.7640 C   0  0  0  0  0  0
    5.9331    2.6097   -8.1578 C   0  0  0  0  0  0
    6.0348    4.1285   -8.1439 C   0  0  0  0  0  0
    7.0195    2.0011   -7.3667 N   0  0  0  0  0  0
    3.6827    2.2911   -8.8877 O   0  0  0  0  0  0
    2.8936    0.3384   -5.6551 O   0  0  0  0  0  0
   -3.4320   -2.2457   -6.6060 O   0  0  0  0  0  0
   -6.7712   -4.9811   -7.7940 O   0  0  0  0  0  0
   -6.9957   -4.5138   -9.0496 C   0  0  0  0  0  0
   -6.8998   -3.3575   -9.4148 O   0  0  0  0  0  0
   -7.2868   -5.6840   -9.9480 C   0  0  0  0  0  0
   -8.7367   -5.6903  -10.4582 C   0  0  0  0  0  0
   -9.2099   -4.3008  -10.9040 C   0  0  0  0  0  0
  -10.7159   -4.2472  -11.0143 C   0  0  0  0  0  0
  -11.3147   -3.4768  -11.7570 O   0  0  0  0  0  0
  -11.3416   -5.1283  -10.2199 O   0  0  0  0  0  0
   -8.7612   -6.6602  -11.6476 C   0  0  0  0  0  0
   -9.2027   -6.3578  -12.7458 O   0  0  0  0  0  0
   -8.3019   -7.8881  -11.3695 O   0  0  0  0  0  0
   -7.5768   -3.4632   -5.6438 O   0  0  0  0  0  0
   -7.9376   -2.5675   -4.6510 C   0  0  0  0  0  0
   -7.2268   -2.2524   -3.7055 O   0  0  0  0  0  0
   -9.3469   -1.9986   -4.8620 C   0  0  0  0  0  0
  -10.2345   -2.7550   -5.8985 C   0  0  0  0  0  0
  -11.6452   -2.2061   -6.1799 C   0  0  0  0  0  0
  -11.6463   -1.0627   -7.1530 C   0  0  0  0  0  0
  -11.6136   -1.1630   -8.3718 O   0  0  0  0  0  0
  -11.7078    0.1306   -6.5426 O   0  0  0  0  0  0
   -9.5636   -2.9971   -7.2563 C   0  0  0  0  0  0
   -8.5948   -2.3689   -7.6354 O   0  0  0  0  0  0
  -10.0536   -4.0336   -7.9681 O   0  0  0  0  0  0
    6.7241    1.9283   -6.3941 H   0  0  0  0  0  0
    7.8138    2.6448   -7.3533 H   0  0  0  0  0  0
    3.6114    3.2689   -8.9009 H   0  0  0  0  0  0
    2.8416    1.3113   -5.6207 H   0  0  0  0  0  0
   -3.7941   -2.9954   -6.1047 H   0  0  0  0  0  0
  -12.3060   -5.0012  -10.1350 H   0  0  0  0  0  0
   -7.7419   -7.9418  -10.5557 H   0  0  0  0  0  0
  -11.8134    0.8027   -7.2487 H   0  0  0  0  0  0
  -10.7572   -4.5545   -7.5210 H   0  0  0  0  0  0
  1  2  1  0  0  0
  2  3  1  0  0  0
  3  4  1  0  0  0
  4  5  1  0  0  0
  5  6  1  0  0  0
  5  7  1  0  0  0
  7  8  1  0  0  0
  7 39  1  0  0  0
  8  9  1  0  0  0
  8 27  1  0  0  0
  9 10  1  0  0  0
 10 11  1  0  0  0
 10 12  1  0  0  0
 12 13  1  0  0  0
 13 14  1  0  0  0
 13 26  1  0  0  0
 14 15  1  0  0  0
 15 16  1  0  0  0
 16 17  1  0  0  0
 17 18  1  0  0  0
 18 19  1  0  0  0
 18 25  1  0  0  0
 19 20  1  0  0  0
 20 21  1  0  0  0
 20 24  1  0  0  0
 21 22  1  0  0  0
 21 23  1  0  0  0
 23 51  1  0  0  0
 23 52  1  0  0  0
 24 53  1  0  0  0
 25 54  1  0  0  0
 26 55  1  0  0  0
 27 28  1  0  0  0
 28 29  2  0  0  0
 28 30  1  0  0  0
 30 31  1  0  0  0
 31 32  1  0  0  0
 31 36  1  0  0  0
 32 33  1  0  0  0
 33 34  2  0  0  0
 33 35  1  0  0  0
 35 56  1  0  0  0
 36 37  2  0  0  0
 36 38  1  0  0  0
 38 57  1  0  0  0
 39 40  1  0  0  0
 40 41  2  0  0  0
 40 42  1  0  0  0
 42 43  1  0  0  0
 43 44  1  0  0  0
 43 48  1  0  0  0
 44 45  1  0  0  0
 45 46  2  0  0  0
 45 47  1  0  0  0
 47 58  1  0  0  0
 48 49  2  0  0  0
 48 50  1  0  0  0
 50 59  1  0  0  0
M  END
>  <AUTHOR>
    GENERATED BY OPEN BABEL 2.4.1

>  <CHROM.1>
178.70870496,-114.40782376,-61.52771070,91.14845247,-33.96689871,77.66281468
-146.18324635,133.44112321,-69.16870579,42.30914734,159.32732525,-73.55595882
80.56449125,154.02910878,80.00397786,75.29648143,109.42790997,50.27018410
-62.03029250,174.73841866,-170.32070838,166.92044368,-43.27770606,-38.72677055
112.82355070,43.45670272,-163.51109940,-127.31053567,-153.63484805,168.43997196
-19.13321051,-2.01671119,14.44820668,-178.35376854,81.38503301,-18.80875891
82.35218016,-173.28601857,-3.11835871,-4.92281914,-2.67913506,-7.53744220
0.17437341,0.32816990,1.29210250

>  <COMPND>
    UNNAMED

>  <MASTER>
        0    0    0    0    0    0    0    0  109    0  109    0

>  <Name>
FB1.pdb

>  <RI>
0

>  <Rbt.Current_Directory>
/home/fc/tossine/FB1_39/p3/0_clust04

>  <Rbt.Executable>
rbdock/0.1.0

>  <Rbt.Library>
librxdock.so/0.1.0

>  <Rbt.Parameter_File>
/cluster/rxdock/data/scripts/dock.prm

>  <Rbt.Receptor>
rx_3.prm

>  <SCORE>
39.8441

>  <SCORE.INTER>
16.8867

>  <SCORE.INTER.CONST>
1

>  <SCORE.INTER.POLAR>
-4.14052

>  <SCORE.INTER.REPUL>
0.736267

>  <SCORE.INTER.ROT>
32

>  <SCORE.INTER.VDW>
-10.1168

>  <SCORE.INTER.norm>
0.337735

>  <SCORE.INTRA>
19.8289

>  <SCORE.INTRA.DIHEDRAL>
22.5517

>  <SCORE.INTRA.DIHEDRAL.0>
47.3121

>  <SCORE.INTRA.POLAR>
1.47808

>  <SCORE.INTRA.POLAR.0>
-1.47808

>  <SCORE.INTRA.REPUL>
0

>  <SCORE.INTRA.REPUL.0>
0

>  <SCORE.INTRA.VDW>
3.52761

>  <SCORE.INTRA.VDW.0>
-2.78316

>  <SCORE.INTRA.norm>
0.396578

>  <SCORE.RESTR>
3.12848

>  <SCORE.RESTR.CAVITY>
3.12848

>  <SCORE.RESTR.norm>
0.0625696

>  <SCORE.SYSTEM>
0

>  <SCORE.SYSTEM.CONST>
0

>  <SCORE.SYSTEM.DIHEDRAL>
0

>  <SCORE.SYSTEM.norm>
0

>  <SCORE.heavy>
50

>  <SCORE.norm>
0.796882

$$$$
