FB1.pdb
  RxDock  10062020583D
librxdock.so/0.1.0
 59 58  0  0  0  0  0  0  0  0999 V2000
  -10.4394   -8.7091  -14.0063 C   0  0  0  0  0  0
   -9.5735   -9.3054  -12.8991 C   0  0  0  0  0  0
   -8.3519   -8.4229  -12.5940 C   0  0  0  0  0  0
   -8.7240   -6.9986  -12.1117 C   0  0  0  0  0  0
   -7.5048   -6.0396  -11.8784 C   0  0  0  0  0  0
   -6.6944   -5.9560  -13.1925 C   0  0  0  0  0  0
   -7.9236   -4.5935  -11.3771 C   0  0  0  0  0  0
   -9.0863   -3.8515  -12.1917 C   0  0  0  0  0  0
   -9.9256   -4.4948  -13.3792 C   0  0  0  0  0  0
  -10.7158   -3.4140  -14.3429 C   0  0  0  0  0  0
   -9.8014   -2.2123  -14.5752 C   0  0  0  0  0  0
  -11.2344   -3.9704  -15.7451 C   0  0  0  0  0  0
  -10.4030   -4.9996  -16.6768 C   0  0  0  0  0  0
  -10.6113   -5.0848  -18.2278 C   0  0  0  0  0  0
   -9.5277   -5.8739  -19.0952 C   0  0  0  0  0  0
   -9.1098   -7.3759  -18.8425 C   0  0  0  0  0  0
  -10.0148   -8.5205  -19.3702 C   0  0  0  0  0  0
  -10.5011   -9.5817  -18.3089 C   0  0  0  0  0  0
   -9.4986  -10.6824  -17.9402 C   0  0  0  0  0  0
   -8.6829  -10.5265  -16.6254 C   0  0  0  0  0  0
   -7.7593  -11.6767  -16.1260 C   0  0  0  0  0  0
   -7.1793  -11.5210  -14.7272 C   0  0  0  0  0  0
   -8.4209  -12.9863  -16.2798 N   0  0  0  0  0  0
   -7.7908   -9.4107  -16.8764 O   0  0  0  0  0  0
  -10.8640   -8.8788  -17.1156 O   0  0  0  0  0  0
   -9.0259   -4.6254  -16.5031 O   0  0  0  0  0  0
  -10.0875   -3.4663  -11.2110 O   0  0  0  0  0  0
   -9.8935   -2.2894  -10.5610 C   0  0  0  0  0  0
   -8.9296   -1.5560  -10.6731 O   0  0  0  0  0  0
  -11.1218   -1.9865   -9.7481 C   0  0  0  0  0  0
  -10.7987   -1.7083   -8.2714 C   0  0  0  0  0  0
  -11.9201   -0.9428   -7.5575 C   0  0  0  0  0  0
  -11.4838   -0.4937   -6.1822 C   0  0  0  0  0  0
  -11.0709    0.6344   -5.9363 O   0  0  0  0  0  0
  -11.5924   -1.4502   -5.2483 O   0  0  0  0  0  0
  -10.6014   -3.0825   -7.6167 C   0  0  0  0  0  0
  -11.0925   -4.1093   -8.0603 O   0  0  0  0  0  0
   -9.8837   -3.0581   -6.4852 O   0  0  0  0  0  0
   -8.1791   -4.5865   -9.9161 O   0  0  0  0  0  0
   -7.1242   -4.3052   -9.0639 C   0  0  0  0  0  0
   -6.0186   -3.9248   -9.4263 O   0  0  0  0  0  0
   -7.4905   -4.5229   -7.5898 C   0  0  0  0  0  0
   -6.4568   -3.9906   -6.5493 C   0  0  0  0  0  0
   -6.9223   -3.8145   -5.0923 C   0  0  0  0  0  0
   -6.1300   -2.7815   -4.3442 C   0  0  0  0  0  0
   -5.0797   -2.2785   -4.7190 O   0  0  0  0  0  0
   -6.7098   -2.4293   -3.1866 O   0  0  0  0  0  0
   -5.1336   -4.7651   -6.5115 C   0  0  0  0  0  0
   -4.7951   -5.4482   -5.5652 O   0  0  0  0  0  0
   -4.4076   -4.7275   -7.6486 O   0  0  0  0  0  0
   -9.3374  -12.9517  -15.8356 H   0  0  0  0  0  0
   -7.8955  -13.6824  -15.7460 H   0  0  0  0  0  0
   -7.4062   -9.2003  -15.9994 H   0  0  0  0  0  0
  -11.6822   -8.3795  -17.2936 H   0  0  0  0  0  0
   -8.7766   -4.8147  -15.5831 H   0  0  0  0  0  0
  -11.3190   -1.1870   -4.3486 H   0  0  0  0  0  0
   -9.7302   -3.9464   -6.0777 H   0  0  0  0  0  0
   -6.1439   -1.7346   -2.7885 H   0  0  0  0  0  0
   -4.7641   -4.1444   -8.3550 H   0  0  0  0  0  0
  1  2  1  0  0  0
  2  3  1  0  0  0
  3  4  1  0  0  0
  4  5  1  0  0  0
  5  6  1  0  0  0
  5  7  1  0  0  0
  7  8  1  0  0  0
  7 39  1  0  0  0
  8  9  1  0  0  0
  8 27  1  0  0  0
  9 10  1  0  0  0
 10 11  1  0  0  0
 10 12  1  0  0  0
 12 13  1  0  0  0
 13 14  1  0  0  0
 13 26  1  0  0  0
 14 15  1  0  0  0
 15 16  1  0  0  0
 16 17  1  0  0  0
 17 18  1  0  0  0
 18 19  1  0  0  0
 18 25  1  0  0  0
 19 20  1  0  0  0
 20 21  1  0  0  0
 20 24  1  0  0  0
 21 22  1  0  0  0
 21 23  1  0  0  0
 23 51  1  0  0  0
 23 52  1  0  0  0
 24 53  1  0  0  0
 25 54  1  0  0  0
 26 55  1  0  0  0
 27 28  1  0  0  0
 28 29  2  0  0  0
 28 30  1  0  0  0
 30 31  1  0  0  0
 31 32  1  0  0  0
 31 36  1  0  0  0
 32 33  1  0  0  0
 33 34  2  0  0  0
 33 35  1  0  0  0
 35 56  1  0  0  0
 36 37  2  0  0  0
 36 38  1  0  0  0
 38 57  1  0  0  0
 39 40  1  0  0  0
 40 41  2  0  0  0
 40 42  1  0  0  0
 42 43  1  0  0  0
 43 44  1  0  0  0
 43 48  1  0  0  0
 44 45  1  0  0  0
 45 46  2  0  0  0
 45 47  1  0  0  0
 47 58  1  0  0  0
 48 49  2  0  0  0
 48 50  1  0  0  0
 50 59  1  0  0  0
M  END
>  <AUTHOR>
    GENERATED BY OPEN BABEL 2.4.1

>  <CHROM.1>
60.67783147,-176.26779123,56.64721307,-48.90206752,5.21545873,90.46593395
-161.95443461,85.12745877,40.27034974,-39.47387386,-154.61061961,166.14785768
66.33178916,55.83718605,80.09285161,-124.90919408,-80.54451673,99.45063401
70.28691664,173.74474445,-170.56880236,169.23026075,-52.66211238,-3.78965118
126.82701758,160.12585669,-170.91227075,-24.06481695,97.89628375,-179.86644153
-178.08466596,7.90501441,-169.46114673,163.14916527,-154.42602322,-112.01468276
-12.40253367,-177.99092266,5.10226460,-8.82650058,-5.21922780,-11.52620807
-1.70002898,-0.85401028,0.95445244

>  <COMPND>
    UNNAMED

>  <MASTER>
        0    0    0    0    0    0    0    0  109    0  109    0

>  <Name>
FB1.pdb

>  <RI>
0

>  <Rbt.Current_Directory>
/home/fc/tossine/FB1_39/p3/0_clust04

>  <Rbt.Executable>
rbdock/0.1.0

>  <Rbt.Library>
librxdock.so/0.1.0

>  <Rbt.Parameter_File>
/cluster/rxdock/data/scripts/dock.prm

>  <Rbt.Receptor>
rx_1.prm

>  <SCORE>
8.92066

>  <SCORE.INTER>
6.36178

>  <SCORE.INTER.CONST>
1

>  <SCORE.INTER.POLAR>
-1.89433

>  <SCORE.INTER.REPUL>
0.771117

>  <SCORE.INTER.ROT>
32

>  <SCORE.INTER.VDW>
-28.4531

>  <SCORE.INTER.norm>
0.127236

>  <SCORE.INTRA>
2.0071

>  <SCORE.INTRA.DIHEDRAL>
3.7279

>  <SCORE.INTRA.DIHEDRAL.0>
47.3121

>  <SCORE.INTRA.POLAR>
0.692098

>  <SCORE.INTRA.POLAR.0>
-1.47808

>  <SCORE.INTRA.REPUL>
0

>  <SCORE.INTRA.REPUL.0>
0

>  <SCORE.INTRA.VDW>
-2.20998

>  <SCORE.INTRA.VDW.0>
-2.78316

>  <SCORE.INTRA.norm>
0.040142

>  <SCORE.RESTR>
0.551776

>  <SCORE.RESTR.CAVITY>
0.551776

>  <SCORE.RESTR.norm>
0.0110355

>  <SCORE.SYSTEM>
0

>  <SCORE.SYSTEM.CONST>
0

>  <SCORE.SYSTEM.DIHEDRAL>
0

>  <SCORE.SYSTEM.norm>
0

>  <SCORE.heavy>
50

>  <SCORE.norm>
0.178413

$$$$
