FB1.pdb
  RxDock  10062022583D
librxdock.so/0.1.0
 59 58  0  0  0  0  0  0  0  0999 V2000
    7.3684   -3.0269  -10.2051 C   0  0  0  0  0  0
    8.8706   -3.1027  -10.4680 C   0  0  0  0  0  0
    9.4542   -1.7287  -10.8366 C   0  0  0  0  0  0
    9.0594   -0.6043   -9.8469 C   0  0  0  0  0  0
    9.8010    0.7604  -10.0660 C   0  0  0  0  0  0
    9.7403    1.1098  -11.5709 C   0  0  0  0  0  0
    9.2205    1.9452   -9.1844 C   0  0  0  0  0  0
    7.8849    2.6551   -9.7119 C   0  0  0  0  0  0
    6.4056    2.1413   -9.4364 C   0  0  0  0  0  0
    5.8126    2.4879   -7.9366 C   0  0  0  0  0  0
    4.4886    1.7474   -7.7553 C   0  0  0  0  0  0
    6.7776    2.1668   -6.7075 C   0  0  0  0  0  0
    7.0181    3.1657   -5.4573 C   0  0  0  0  0  0
    8.2668    3.0498   -4.5174 C   0  0  0  0  0  0
    8.0630    3.2972   -2.9533 C   0  0  0  0  0  0
    8.2046    4.7044   -2.2503 C   0  0  0  0  0  0
    8.7502    4.7830   -0.7999 C   0  0  0  0  0  0
   10.2117    4.2370   -0.5652 C   0  0  0  0  0  0
   10.9226    4.7225    0.7041 C   0  0  0  0  0  0
   11.4485    6.1855    0.7410 C   0  0  0  0  0  0
   12.6326    6.6240   -0.1706 C   0  0  0  0  0  0
   13.9400    5.8641    0.0047 C   0  0  0  0  0  0
   12.2234    6.6494   -1.5878 N   0  0  0  0  0  0
   10.3231    6.9917    0.3082 O   0  0  0  0  0  0
   10.1491    2.8071   -0.5327 O   0  0  0  0  0  0
    7.1096    4.4754   -6.0430 O   0  0  0  0  0  0
    7.9028    4.0053   -9.1740 O   0  0  0  0  0  0
    8.8640    4.8431   -9.6424 C   0  0  0  0  0  0
    9.6729    4.5934  -10.5158 O   0  0  0  0  0  0
    8.7001    6.1784   -8.9705 C   0  0  0  0  0  0
    7.5822    7.0237   -9.6017 C   0  0  0  0  0  0
    6.2749    6.9628   -8.8013 C   0  0  0  0  0  0
    5.4317    5.7822   -9.2237 C   0  0  0  0  0  0
    5.2141    5.4882  -10.3941 O   0  0  0  0  0  0
    4.9411    5.0795   -8.1919 O   0  0  0  0  0  0
    8.1107    8.4644   -9.6356 C   0  0  0  0  0  0
    7.6371    9.3646   -8.9590 O   0  0  0  0  0  0
    9.1071    8.6675  -10.5085 O   0  0  0  0  0  0
    9.1119    1.5487   -7.7593 O   0  0  0  0  0  0
   10.2506    1.0997   -7.1115 C   0  0  0  0  0  0
   11.2554    0.6864   -7.6754 O   0  0  0  0  0  0
   10.1217    1.1755   -5.5844 C   0  0  0  0  0  0
    9.9112   -0.1871   -4.8540 C   0  0  0  0  0  0
   11.1504   -1.0572   -4.5747 C   0  0  0  0  0  0
   11.6983   -1.7112   -5.8102 C   0  0  0  0  0  0
   11.1588   -1.7275   -6.9081 O   0  0  0  0  0  0
   12.8926   -2.2856   -5.6001 O   0  0  0  0  0  0
    9.1196   -0.0926   -3.5437 C   0  0  0  0  0  0
    8.3276   -0.9428   -3.1880 O   0  0  0  0  0  0
    9.4372    0.9508   -2.7489 O   0  0  0  0  0  0
   11.2102    6.7446   -1.6412 H   0  0  0  0  0  0
   12.4244    5.7365   -2.0022 H   0  0  0  0  0  0
    9.6780    6.9299    1.0440 H   0  0  0  0  0  0
   10.0116    2.4878   -1.4436 H   0  0  0  0  0  0
    6.3676    4.5806   -6.6617 H   0  0  0  0  0  0
    4.3305    4.3567   -8.4330 H   0  0  0  0  0  0
    9.1612    7.9956  -11.2326 H   0  0  0  0  0  0
   13.5589   -1.7200   -6.0445 H   0  0  0  0  0  0
    8.9361    1.0032   -1.9049 H   0  0  0  0  0  0
  1  2  1  0  0  0
  2  3  1  0  0  0
  3  4  1  0  0  0
  4  5  1  0  0  0
  5  6  1  0  0  0
  5  7  1  0  0  0
  7  8  1  0  0  0
  7 39  1  0  0  0
  8  9  1  0  0  0
  8 27  1  0  0  0
  9 10  1  0  0  0
 10 11  1  0  0  0
 10 12  1  0  0  0
 12 13  1  0  0  0
 13 14  1  0  0  0
 13 26  1  0  0  0
 14 15  1  0  0  0
 15 16  1  0  0  0
 16 17  1  0  0  0
 17 18  1  0  0  0
 18 19  1  0  0  0
 18 25  1  0  0  0
 19 20  1  0  0  0
 20 21  1  0  0  0
 20 24  1  0  0  0
 21 22  1  0  0  0
 21 23  1  0  0  0
 23 51  1  0  0  0
 23 52  1  0  0  0
 24 53  1  0  0  0
 25 54  1  0  0  0
 26 55  1  0  0  0
 27 28  1  0  0  0
 28 29  2  0  0  0
 28 30  1  0  0  0
 30 31  1  0  0  0
 31 32  1  0  0  0
 31 36  1  0  0  0
 32 33  1  0  0  0
 33 34  2  0  0  0
 33 35  1  0  0  0
 35 56  1  0  0  0
 36 37  2  0  0  0
 36 38  1  0  0  0
 38 57  1  0  0  0
 39 40  1  0  0  0
 40 41  2  0  0  0
 40 42  1  0  0  0
 42 43  1  0  0  0
 43 44  1  0  0  0
 43 48  1  0  0  0
 44 45  1  0  0  0
 45 46  2  0  0  0
 45 47  1  0  0  0
 47 58  1  0  0  0
 48 49  2  0  0  0
 48 50  1  0  0  0
 50 59  1  0  0  0
M  END
>  <AUTHOR>
    GENERATED BY OPEN BABEL 2.4.1

>  <CHROM.1>
50.28058134,171.41411040,47.61806327,-79.89283298,84.85328908,56.32515449
78.27268802,67.30344273,-171.25237541,135.66068945,-160.36667202,-141.20817757
47.74150775,-90.44182303,-146.73201132,60.82441038,160.21495019,-73.90639448
73.77231595,-68.02137483,-58.53434984,69.50438877,22.48069327,3.75744322
-79.77983506,99.68032880,-86.84227299,-112.61171429,-46.30420442,174.99641529
21.08130179,-19.16693584,105.74066331,81.39680243,-73.00086794,143.03701280
-9.23626252,-107.07464823,-179.30364135,8.96460642,2.97304472,-6.29438369
-2.37439519,-1.14858506,0.55201926

>  <COMPND>
    UNNAMED

>  <MASTER>
        0    0    0    0    0    0    0    0  109    0  109    0

>  <Name>
FB1.pdb

>  <RI>
0

>  <Rbt.Current_Directory>
/home/fc/tossine/FB1_39/p3/0_clust04

>  <Rbt.Executable>
rbdock/0.1.0

>  <Rbt.Library>
librxdock.so/0.1.0

>  <Rbt.Parameter_File>
/cluster/rxdock/data/scripts/dock.prm

>  <Rbt.Receptor>
rx_4.prm

>  <SCORE>
175.541

>  <SCORE.INTER>
155.006

>  <SCORE.INTER.CONST>
1

>  <SCORE.INTER.POLAR>
-3.26386

>  <SCORE.INTER.REPUL>
0.878129

>  <SCORE.INTER.ROT>
32

>  <SCORE.INTER.VDW>
124.312

>  <SCORE.INTER.norm>
3.10012

>  <SCORE.INTRA>
13.8565

>  <SCORE.INTRA.DIHEDRAL>
30.8345

>  <SCORE.INTRA.DIHEDRAL.0>
47.3121

>  <SCORE.INTRA.POLAR>
-0.738583

>  <SCORE.INTRA.POLAR.0>
-1.47808

>  <SCORE.INTRA.REPUL>
0

>  <SCORE.INTRA.REPUL.0>
0

>  <SCORE.INTRA.VDW>
0.950388

>  <SCORE.INTRA.VDW.0>
-2.78316

>  <SCORE.INTRA.norm>
0.277129

>  <SCORE.RESTR>
6.67873

>  <SCORE.RESTR.CAVITY>
6.67873

>  <SCORE.RESTR.norm>
0.133575

>  <SCORE.SYSTEM>
0

>  <SCORE.SYSTEM.CONST>
0

>  <SCORE.SYSTEM.DIHEDRAL>
0

>  <SCORE.SYSTEM.norm>
0

>  <SCORE.heavy>
50

>  <SCORE.norm>
3.51082

$$$$
