FB1.pdb
  RxDock  10062021493D
librxdock.so/0.1.0
 59 58  0  0  0  0  0  0  0  0999 V2000
  -13.4359   -3.1101  -16.6485 C   0  0  0  0  0  0
  -12.5904   -4.3796  -16.7176 C   0  0  0  0  0  0
  -11.3443   -4.2833  -15.8220 C   0  0  0  0  0  0
  -10.4118   -3.1012  -16.1862 C   0  0  0  0  0  0
  -10.0692   -2.1379  -14.9966 C   0  0  0  0  0  0
  -11.3790   -1.4665  -14.5229 C   0  0  0  0  0  0
   -9.3325   -2.8587  -13.7902 C   0  0  0  0  0  0
  -10.1592   -3.0208  -12.4277 C   0  0  0  0  0  0
   -9.7476   -3.9621  -11.2141 C   0  0  0  0  0  0
  -10.9242   -4.1990  -10.0823 C   0  0  0  0  0  0
  -11.4767   -5.6140  -10.2459 C   0  0  0  0  0  0
  -10.4964   -3.9641   -8.5636 C   0  0  0  0  0  0
   -8.9655   -3.7921   -8.0680 C   0  0  0  0  0  0
   -7.8691   -4.8798   -8.3344 C   0  0  0  0  0  0
   -6.7799   -5.1511   -7.1990 C   0  0  0  0  0  0
   -5.2620   -5.4815   -7.4844 C   0  0  0  0  0  0
   -4.2359   -4.3234   -7.5992 C   0  0  0  0  0  0
   -3.6549   -3.7587   -6.2453 C   0  0  0  0  0  0
   -4.5163   -2.7190   -5.5176 C   0  0  0  0  0  0
   -6.0534   -2.9471   -5.4571 C   0  0  0  0  0  0
   -6.8798   -2.4486   -4.2349 C   0  0  0  0  0  0
   -8.2566   -3.0709   -4.0487 C   0  0  0  0  0  0
   -6.0882   -2.5386   -2.9932 N   0  0  0  0  0  0
   -6.5792   -2.2114   -6.5911 O   0  0  0  0  0  0
   -3.4353   -4.8650   -5.3634 O   0  0  0  0  0  0
   -8.4916   -2.6103   -8.7353 O   0  0  0  0  0  0
  -10.2412   -1.6933  -11.8417 O   0  0  0  0  0  0
  -11.4829   -1.2158  -11.5669 C   0  0  0  0  0  0
  -12.5143   -1.8603  -11.5519 O   0  0  0  0  0  0
  -11.3613    0.2326  -11.1814 C   0  0  0  0  0  0
  -12.7085    0.9711  -11.2288 C   0  0  0  0  0  0
  -13.4387    0.9508   -9.8798 C   0  0  0  0  0  0
  -13.4249   -0.4332   -9.2733 C   0  0  0  0  0  0
  -12.7155   -0.7511   -8.3250 O   0  0  0  0  0  0
  -14.2681   -1.2873   -9.8719 O   0  0  0  0  0  0
  -12.3830    2.4170  -11.6282 C   0  0  0  0  0  0
  -12.4507    3.3555  -10.8490 O   0  0  0  0  0  0
  -12.0645    2.5756  -12.9202 O   0  0  0  0  0  0
   -8.7220   -4.1390  -14.2237 O   0  0  0  0  0  0
   -8.2625   -5.0125  -13.2521 C   0  0  0  0  0  0
   -7.3006   -4.8017  -12.5249 O   0  0  0  0  0  0
   -9.0993   -6.2965  -13.1785 C   0  0  0  0  0  0
   -8.3068   -7.6314  -13.3350 C   0  0  0  0  0  0
   -7.9676   -8.1085  -14.7589 C   0  0  0  0  0  0
   -7.5187   -6.9942  -15.6596 C   0  0  0  0  0  0
   -8.1815   -6.4900  -16.5558 O   0  0  0  0  0  0
   -6.2795   -6.5685  -15.3707 O   0  0  0  0  0  0
   -7.0144   -7.7059  -12.5125 C   0  0  0  0  0  0
   -5.9131   -7.7890  -13.0193 O   0  0  0  0  0  0
   -7.1674   -7.5650  -11.1790 O   0  0  0  0  0  0
   -6.7009   -2.3810   -2.1943 H   0  0  0  0  0  0
   -5.4235   -1.7620   -2.9726 H   0  0  0  0  0  0
   -7.5511   -2.3253   -6.5299 H   0  0  0  0  0  0
   -3.2220   -4.5120   -4.4800 H   0  0  0  0  0  0
   -7.6126   -2.3966   -8.3803 H   0  0  0  0  0  0
  -14.8974   -0.8811  -10.4984 H   0  0  0  0  0  0
  -11.9518    3.5171  -13.2022 H   0  0  0  0  0  0
   -6.1332   -5.7525  -15.8942 H   0  0  0  0  0  0
   -7.9845   -7.9640  -10.8059 H   0  0  0  0  0  0
  1  2  1  0  0  0
  2  3  1  0  0  0
  3  4  1  0  0  0
  4  5  1  0  0  0
  5  6  1  0  0  0
  5  7  1  0  0  0
  7  8  1  0  0  0
  7 39  1  0  0  0
  8  9  1  0  0  0
  8 27  1  0  0  0
  9 10  1  0  0  0
 10 11  1  0  0  0
 10 12  1  0  0  0
 12 13  1  0  0  0
 13 14  1  0  0  0
 13 26  1  0  0  0
 14 15  1  0  0  0
 15 16  1  0  0  0
 16 17  1  0  0  0
 17 18  1  0  0  0
 18 19  1  0  0  0
 18 25  1  0  0  0
 19 20  1  0  0  0
 20 21  1  0  0  0
 20 24  1  0  0  0
 21 22  1  0  0  0
 21 23  1  0  0  0
 23 51  1  0  0  0
 23 52  1  0  0  0
 24 53  1  0  0  0
 25 54  1  0  0  0
 26 55  1  0  0  0
 27 28  1  0  0  0
 28 29  2  0  0  0
 28 30  1  0  0  0
 30 31  1  0  0  0
 31 32  1  0  0  0
 31 36  1  0  0  0
 32 33  1  0  0  0
 33 34  2  0  0  0
 33 35  1  0  0  0
 35 56  1  0  0  0
 36 37  2  0  0  0
 36 38  1  0  0  0
 38 57  1  0  0  0
 39 40  1  0  0  0
 40 41  2  0  0  0
 40 42  1  0  0  0
 42 43  1  0  0  0
 43 44  1  0  0  0
 43 48  1  0  0  0
 44 45  1  0  0  0
 45 46  2  0  0  0
 45 47  1  0  0  0
 47 58  1  0  0  0
 48 49  2  0  0  0
 48 50  1  0  0  0
 50 59  1  0  0  0
M  END
>  <AUTHOR>
    GENERATED BY OPEN BABEL 2.4.1

>  <CHROM.1>
-59.04773335,126.02858605,-63.58102238,-110.73504250,166.42418412,-167.95446929
-167.15637845,124.23446839,106.10922006,-11.93020527,-57.34790644,-142.65418319
172.63630750,-143.02071779,89.56104304,82.87986312,-82.93478268,41.29675444
-170.53023190,148.48375791,-161.75464975,-177.71554572,-169.16852315,13.10111868
164.08157908,91.80187289,-45.94806835,-107.93002208,105.57445678,-11.00485524
173.60113462,-68.11901954,124.55487933,-82.10846352,41.72815725,-116.00369800
-105.72163316,-170.43330758,36.02436715,-9.16865535,-3.36175417,-10.87003776
-2.37906492,-0.75178678,1.06821369

>  <COMPND>
    UNNAMED

>  <MASTER>
        0    0    0    0    0    0    0    0  109    0  109    0

>  <Name>
FB1.pdb

>  <RI>
0

>  <Rbt.Current_Directory>
/home/fc/tossine/FB1_39/p3/0_clust04

>  <Rbt.Executable>
rbdock/0.1.0

>  <Rbt.Library>
librxdock.so/0.1.0

>  <Rbt.Parameter_File>
/cluster/rxdock/data/scripts/dock.prm

>  <Rbt.Receptor>
rx_2.prm

>  <SCORE>
60.5284

>  <SCORE.INTER>
20.799

>  <SCORE.INTER.CONST>
1

>  <SCORE.INTER.POLAR>
-0.91961

>  <SCORE.INTER.REPUL>
1.03054

>  <SCORE.INTER.ROT>
32

>  <SCORE.INTER.VDW>
-18.627

>  <SCORE.INTER.norm>
0.415981

>  <SCORE.INTRA>
31.624

>  <SCORE.INTRA.DIHEDRAL>
51.2682

>  <SCORE.INTRA.DIHEDRAL.0>
47.3121

>  <SCORE.INTRA.POLAR>
0.673139

>  <SCORE.INTRA.POLAR.0>
-1.47808

>  <SCORE.INTRA.REPUL>
0

>  <SCORE.INTRA.REPUL.0>
0

>  <SCORE.INTRA.VDW>
3.70123

>  <SCORE.INTRA.VDW.0>
-2.78316

>  <SCORE.INTRA.norm>
0.63248

>  <SCORE.RESTR>
8.10534

>  <SCORE.RESTR.CAVITY>
8.10534

>  <SCORE.RESTR.norm>
0.162107

>  <SCORE.SYSTEM>
0

>  <SCORE.SYSTEM.CONST>
0

>  <SCORE.SYSTEM.DIHEDRAL>
0

>  <SCORE.SYSTEM.norm>
0

>  <SCORE.heavy>
50

>  <SCORE.norm>
1.21057

$$$$
