FB1.pdb
  RxDock  10062019573D
librxdock.so/0.1.0
 59 58  0  0  0  0  0  0  0  0999 V2000
   -4.7250   -5.1479   -9.4941 C   0  0  0  0  0  0
   -5.4667   -5.0840  -10.8272 C   0  0  0  0  0  0
   -6.0166   -6.4595  -11.2393 C   0  0  0  0  0  0
   -7.0543   -6.3910  -12.3873 C   0  0  0  0  0  0
   -8.2802   -5.4508  -12.1157 C   0  0  0  0  0  0
   -7.8380   -3.9911  -12.3690 C   0  0  0  0  0  0
   -9.5605   -5.8140  -12.9800 C   0  0  0  0  0  0
  -10.8754   -4.9324  -12.7351 C   0  0  0  0  0  0
  -11.5245   -4.6324  -11.3149 C   0  0  0  0  0  0
  -10.7032   -3.5441  -10.3862 C   0  0  0  0  0  0
  -11.2220   -2.1434  -10.7072 C   0  0  0  0  0  0
  -10.7537   -3.7851   -8.8101 C   0  0  0  0  0  0
  -10.2769   -2.6983   -7.7100 C   0  0  0  0  0  0
  -10.6066   -2.8464   -6.1851 C   0  0  0  0  0  0
   -9.5357   -2.3201   -5.1242 C   0  0  0  0  0  0
   -8.2603   -3.1337   -4.6705 C   0  0  0  0  0  0
   -7.2423   -2.4804   -3.6988 C   0  0  0  0  0  0
   -5.9867   -3.3499   -3.3029 C   0  0  0  0  0  0
   -4.9882   -3.6525   -4.4271 C   0  0  0  0  0  0
   -5.2923   -4.8404   -5.3835 C   0  0  0  0  0  0
   -6.0425   -4.6024   -6.7273 C   0  0  0  0  0  0
   -7.4638   -5.1409   -6.8144 C   0  0  0  0  0  0
   -5.9934   -3.1790   -7.1117 N   0  0  0  0  0  0
   -3.9884   -5.3475   -5.7661 O   0  0  0  0  0  0
   -5.2939   -2.6713   -2.2497 O   0  0  0  0  0  0
   -8.8413   -2.7015   -7.7856 O   0  0  0  0  0  0
  -10.5915   -3.6176  -13.2859 O   0  0  0  0  0  0
  -10.8371   -3.4372  -14.6096 C   0  0  0  0  0  0
  -11.6265   -4.0673  -15.2873 O   0  0  0  0  0  0
  -10.0406   -2.2533  -15.0845 C   0  0  0  0  0  0
  -10.9302   -1.1185  -15.6168 C   0  0  0  0  0  0
  -11.2913   -1.2985  -17.0968 C   0  0  0  0  0  0
  -11.7738   -2.7035  -17.3733 C   0  0  0  0  0  0
  -11.0495   -3.5987  -17.7949 O   0  0  0  0  0  0
  -13.0769   -2.8822  -17.1111 O   0  0  0  0  0  0
  -12.2028   -1.1424  -14.7589 C   0  0  0  0  0  0
  -13.3133   -1.3606  -15.2191 O   0  0  0  0  0  0
  -12.0033   -0.8545  -13.4654 O   0  0  0  0  0  0
   -9.2225   -5.9169  -14.4205 O   0  0  0  0  0  0
  -10.1675   -6.4473  -15.2829 C   0  0  0  0  0  0
  -11.2040   -6.9940  -14.9292 O   0  0  0  0  0  0
   -9.7749   -6.2755  -16.7563 C   0  0  0  0  0  0
   -9.2749   -7.5648  -17.4788 C   0  0  0  0  0  0
   -7.9564   -8.1982  -16.9982 C   0  0  0  0  0  0
   -7.2705   -9.0044  -18.0631 C   0  0  0  0  0  0
   -7.8229   -9.5702  -18.9966 O   0  0  0  0  0  0
   -5.9385   -9.0359  -17.9049 O   0  0  0  0  0  0
  -10.3129   -8.6905  -17.5654 C   0  0  0  0  0  0
  -11.1395   -8.8946  -16.6983 O   0  0  0  0  0  0
  -10.3222   -9.3822  -18.7242 O   0  0  0  0  0  0
   -6.2307   -2.6062   -6.3028 H   0  0  0  0  0  0
   -6.7369   -2.9979   -7.7899 H   0  0  0  0  0  0
   -4.1786   -6.1839   -6.2410 H   0  0  0  0  0  0
   -5.1958   -1.7352   -2.5038 H   0  0  0  0  0  0
   -8.5200   -1.8526   -7.4382 H   0  0  0  0  0  0
  -13.4436   -3.7433  -17.3896 H   0  0  0  0  0  0
  -11.0779   -1.0053  -13.1497 H   0  0  0  0  0  0
   -5.5921   -9.6746  -18.5632 H   0  0  0  0  0  0
   -9.5924   -9.1678  -19.3468 H   0  0  0  0  0  0
  1  2  1  0  0  0
  2  3  1  0  0  0
  3  4  1  0  0  0
  4  5  1  0  0  0
  5  6  1  0  0  0
  5  7  1  0  0  0
  7  8  1  0  0  0
  7 39  1  0  0  0
  8  9  1  0  0  0
  8 27  1  0  0  0
  9 10  1  0  0  0
 10 11  1  0  0  0
 10 12  1  0  0  0
 12 13  1  0  0  0
 13 14  1  0  0  0
 13 26  1  0  0  0
 14 15  1  0  0  0
 15 16  1  0  0  0
 16 17  1  0  0  0
 17 18  1  0  0  0
 18 19  1  0  0  0
 18 25  1  0  0  0
 19 20  1  0  0  0
 20 21  1  0  0  0
 20 24  1  0  0  0
 21 22  1  0  0  0
 21 23  1  0  0  0
 23 51  1  0  0  0
 23 52  1  0  0  0
 24 53  1  0  0  0
 25 54  1  0  0  0
 26 55  1  0  0  0
 27 28  1  0  0  0
 28 29  2  0  0  0
 28 30  1  0  0  0
 30 31  1  0  0  0
 31 32  1  0  0  0
 31 36  1  0  0  0
 32 33  1  0  0  0
 33 34  2  0  0  0
 33 35  1  0  0  0
 35 56  1  0  0  0
 36 37  2  0  0  0
 36 38  1  0  0  0
 38 57  1  0  0  0
 39 40  1  0  0  0
 40 41  2  0  0  0
 40 42  1  0  0  0
 42 43  1  0  0  0
 43 44  1  0  0  0
 43 48  1  0  0  0
 44 45  1  0  0  0
 45 46  2  0  0  0
 45 47  1  0  0  0
 47 58  1  0  0  0
 48 49  2  0  0  0
 48 50  1  0  0  0
 50 59  1  0  0  0
M  END
>  <AUTHOR>
    GENERATED BY OPEN BABEL 2.4.1

>  <CHROM.1>
166.02705943,-55.48052934,79.22870411,178.20927629,-50.78425384,169.15017184
74.05214286,86.35026374,89.28810742,-167.39977466,167.24927132,146.04727129
157.24778433,-81.41592739,176.13836192,-179.40971370,67.01994818,-82.79749965
-47.48192306,93.61237979,-109.84436195,170.62222085,-46.86364172,24.66601484
-118.55057636,-85.98266109,47.95827259,-117.71430276,-95.82007609,172.29887936
-22.49413625,-9.54139534,105.38193453,-65.43035039,-154.75379811,-33.65332993
-27.63204251,172.55208059,7.25920775,-9.04518135,-4.62029694,-12.06153617
-1.18350965,0.75675200,-2.05999739

>  <COMPND>
    UNNAMED

>  <MASTER>
        0    0    0    0    0    0    0    0  109    0  109    0

>  <Name>
FB1.pdb

>  <RI>
0

>  <Rbt.Current_Directory>
/home/fc/tossine/FB1_39/p3/0_clust04

>  <Rbt.Executable>
rbdock/0.1.0

>  <Rbt.Library>
librxdock.so/0.1.0

>  <Rbt.Parameter_File>
/cluster/rxdock/data/scripts/dock.prm

>  <Rbt.Receptor>
rx_0.prm

>  <SCORE>
11.3942

>  <SCORE.INTER>
3.53509

>  <SCORE.INTER.CONST>
1

>  <SCORE.INTER.POLAR>
-2.3941

>  <SCORE.INTER.REPUL>
0.185743

>  <SCORE.INTER.ROT>
32

>  <SCORE.INTER.VDW>
-26.6537

>  <SCORE.INTER.norm>
0.0707018

>  <SCORE.INTRA>
7.848

>  <SCORE.INTRA.DIHEDRAL>
9.8245

>  <SCORE.INTRA.DIHEDRAL.0>
47.3121

>  <SCORE.INTRA.POLAR>
0.289854

>  <SCORE.INTRA.POLAR.0>
-1.47808

>  <SCORE.INTRA.REPUL>
0

>  <SCORE.INTRA.REPUL.0>
0

>  <SCORE.INTRA.VDW>
1.95025

>  <SCORE.INTRA.VDW.0>
-2.78316

>  <SCORE.INTRA.norm>
0.15696

>  <SCORE.RESTR>
0.0111039

>  <SCORE.RESTR.CAVITY>
0.0111039

>  <SCORE.RESTR.norm>
0.000222077

>  <SCORE.SYSTEM>
0

>  <SCORE.SYSTEM.CONST>
0

>  <SCORE.SYSTEM.DIHEDRAL>
0

>  <SCORE.SYSTEM.norm>
0

>  <SCORE.heavy>
50

>  <SCORE.norm>
0.227884

$$$$
