FB1.pdb
  RxDock  10062019573D
librxdock.so/0.1.0
 59 58  0  0  0  0  0  0  0  0999 V2000
   -7.2827  -10.1401  -21.5383 C   0  0  0  0  0  0
   -6.9672   -9.6490  -20.1274 C   0  0  0  0  0  0
   -7.8614  -10.3259  -19.0756 C   0  0  0  0  0  0
   -9.3564   -9.9376  -19.1939 C   0  0  0  0  0  0
   -9.6501   -8.3998  -19.0974 C   0  0  0  0  0  0
  -10.4813   -7.9857  -20.3337 C   0  0  0  0  0  0
  -10.3822   -7.9779  -17.7542 C   0  0  0  0  0  0
   -9.6917   -8.4259  -16.3799 C   0  0  0  0  0  0
   -9.4140   -7.4688  -15.1409 C   0  0  0  0  0  0
   -8.4426   -8.1053  -13.9693 C   0  0  0  0  0  0
   -6.9866   -7.8463  -14.3528 C   0  0  0  0  0  0
   -8.7040   -7.5897  -12.4825 C   0  0  0  0  0  0
  -10.1581   -7.5648  -11.7730 C   0  0  0  0  0  0
  -11.1662   -6.3802  -11.9644 C   0  0  0  0  0  0
  -10.8937   -5.0190  -11.1757 C   0  0  0  0  0  0
  -10.9466   -4.8770   -9.6036 C   0  0  0  0  0  0
   -9.6501   -4.5352   -8.8227 C   0  0  0  0  0  0
   -9.2528   -3.0102   -8.7479 C   0  0  0  0  0  0
   -7.8789   -2.6949   -8.1432 C   0  0  0  0  0  0
   -7.7635   -2.5764   -6.5970 C   0  0  0  0  0  0
   -6.7084   -1.6295   -5.9524 C   0  0  0  0  0  0
   -5.2468   -1.9684   -6.2102 C   0  0  0  0  0  0
   -6.9906   -0.2213   -6.2895 N   0  0  0  0  0  0
   -9.0475   -2.0528   -6.1716 O   0  0  0  0  0  0
   -9.2987   -2.4762  -10.0755 O   0  0  0  0  0  0
  -10.8388   -8.7231  -12.2846 O   0  0  0  0  0  0
  -10.5215   -9.4877  -15.8355 O   0  0  0  0  0  0
   -9.9510  -10.7142  -15.7112 C   0  0  0  0  0  0
   -8.8316  -11.0266  -16.0699 O   0  0  0  0  0  0
  -10.8996  -11.6064  -14.9592 C   0  0  0  0  0  0
  -10.9293  -13.0389  -15.5157 C   0  0  0  0  0  0
   -9.5447  -13.6994  -15.5150 C   0  0  0  0  0  0
   -9.5353  -14.9467  -16.3681 C   0  0  0  0  0  0
   -8.9370  -15.0343  -17.4349 O   0  0  0  0  0  0
  -10.2460  -15.9569  -15.8454 O   0  0  0  0  0  0
  -11.8864  -13.8242  -14.6084 C   0  0  0  0  0  0
  -12.7565  -14.5655  -15.0396 O   0  0  0  0  0  0
  -11.7222  -13.5922  -13.2988 O   0  0  0  0  0  0
  -10.7206   -6.5339  -17.7596 O   0  0  0  0  0  0
   -9.6862   -5.6148  -17.8184 C   0  0  0  0  0  0
   -8.4974   -5.8993  -17.7543 O   0  0  0  0  0  0
  -10.1928   -4.1750  -17.9758 C   0  0  0  0  0  0
  -10.9492   -3.5847  -16.7454 C   0  0  0  0  0  0
  -11.1259   -2.0572  -16.6696 C   0  0  0  0  0  0
  -11.5937   -1.5869  -15.3226 C   0  0  0  0  0  0
  -12.6458   -1.0054  -15.0956 O   0  0  0  0  0  0
  -10.7274   -1.8901  -14.3439 O   0  0  0  0  0  0
  -12.3227   -4.2133  -16.4797 C   0  0  0  0  0  0
  -12.4655   -5.3763  -16.1576 O   0  0  0  0  0  0
  -13.3680   -3.3607  -16.5219 O   0  0  0  0  0  0
   -6.3533    0.3807   -5.7700 H   0  0  0  0  0  0
   -7.9217    0.0177   -5.9411 H   0  0  0  0  0  0
   -9.1509   -1.2162   -6.6725 H   0  0  0  0  0  0
   -9.2317   -1.5054  -10.0154 H   0  0  0  0  0  0
  -10.2979   -9.5043  -12.0806 H   0  0  0  0  0  0
  -10.3011  -16.7584  -16.4004 H   0  0  0  0  0  0
  -12.2242  -14.2063  -12.7075 H   0  0  0  0  0  0
   -9.9230   -2.2430  -14.7795 H   0  0  0  0  0  0
  -14.2333   -3.7441  -16.2562 H   0  0  0  0  0  0
  1  2  1  0  0  0
  2  3  1  0  0  0
  3  4  1  0  0  0
  4  5  1  0  0  0
  5  6  1  0  0  0
  5  7  1  0  0  0
  7  8  1  0  0  0
  7 39  1  0  0  0
  8  9  1  0  0  0
  8 27  1  0  0  0
  9 10  1  0  0  0
 10 11  1  0  0  0
 10 12  1  0  0  0
 12 13  1  0  0  0
 13 14  1  0  0  0
 13 26  1  0  0  0
 14 15  1  0  0  0
 15 16  1  0  0  0
 16 17  1  0  0  0
 17 18  1  0  0  0
 18 19  1  0  0  0
 18 25  1  0  0  0
 19 20  1  0  0  0
 20 21  1  0  0  0
 20 24  1  0  0  0
 21 22  1  0  0  0
 21 23  1  0  0  0
 23 51  1  0  0  0
 23 52  1  0  0  0
 24 53  1  0  0  0
 25 54  1  0  0  0
 26 55  1  0  0  0
 27 28  1  0  0  0
 28 29  2  0  0  0
 28 30  1  0  0  0
 30 31  1  0  0  0
 31 32  1  0  0  0
 31 36  1  0  0  0
 32 33  1  0  0  0
 33 34  2  0  0  0
 33 35  1  0  0  0
 35 56  1  0  0  0
 36 37  2  0  0  0
 36 38  1  0  0  0
 38 57  1  0  0  0
 39 40  1  0  0  0
 40 41  2  0  0  0
 40 42  1  0  0  0
 42 43  1  0  0  0
 43 44  1  0  0  0
 43 48  1  0  0  0
 44 45  1  0  0  0
 45 46  2  0  0  0
 45 47  1  0  0  0
 47 58  1  0  0  0
 48 49  2  0  0  0
 48 50  1  0  0  0
 50 59  1  0  0  0
M  END
>  <AUTHOR>
    GENERATED BY OPEN BABEL 2.4.1

>  <CHROM.1>
-66.70029660,-57.33764727,126.70433125,53.79327674,130.99891901,-62.72666577
-168.97273673,116.75095260,85.87975539,50.68079008,-84.68021638,-76.14635622
57.03710985,-65.74713792,114.79953454,83.01001652,-171.97673699,-84.87175387
168.77691503,-149.60423071,-63.82470612,-56.66151222,173.51053280,-3.71857891
140.79554986,57.26819868,-165.83337773,133.73981794,110.42944399,176.55889307
-169.95240907,-6.41881644,68.17833440,162.84898322,-167.52766406,65.05710659
-118.05320745,7.92833156,-173.64692419,-9.83661817,-7.19761696,-14.32808536
2.07148226,1.39666508,-2.92094830

>  <COMPND>
    UNNAMED

>  <MASTER>
        0    0    0    0    0    0    0    0  109    0  109    0

>  <Name>
FB1.pdb

>  <RI>
0

>  <Rbt.Current_Directory>
/home/fc/tossine/FB1_39/p3/0_clust04

>  <Rbt.Executable>
rbdock/0.1.0

>  <Rbt.Library>
librxdock.so/0.1.0

>  <Rbt.Parameter_File>
/cluster/rxdock/data/scripts/dock.prm

>  <Rbt.Receptor>
rx_0.prm

>  <SCORE>
3.96984

>  <SCORE.INTER>
-4.87846

>  <SCORE.INTER.CONST>
1

>  <SCORE.INTER.POLAR>
-2.89175

>  <SCORE.INTER.REPUL>
0.650895

>  <SCORE.INTER.ROT>
32

>  <SCORE.INTER.VDW>
-35.701

>  <SCORE.INTER.norm>
-0.0975692

>  <SCORE.INTRA>
8.8483

>  <SCORE.INTRA.DIHEDRAL>
8.19356

>  <SCORE.INTRA.DIHEDRAL.0>
47.3121

>  <SCORE.INTRA.POLAR>
1.47781

>  <SCORE.INTRA.POLAR.0>
-1.47808

>  <SCORE.INTRA.REPUL>
0

>  <SCORE.INTRA.REPUL.0>
0

>  <SCORE.INTRA.VDW>
-0.273048

>  <SCORE.INTRA.VDW.0>
-2.78316

>  <SCORE.INTRA.norm>
0.176966

>  <SCORE.RESTR>
0

>  <SCORE.RESTR.CAVITY>
0

>  <SCORE.RESTR.norm>
0

>  <SCORE.SYSTEM>
0

>  <SCORE.SYSTEM.CONST>
0

>  <SCORE.SYSTEM.DIHEDRAL>
0

>  <SCORE.SYSTEM.norm>
0

>  <SCORE.heavy>
50

>  <SCORE.norm>
0.0793968

$$$$
