FB1.pdb
  RxDock  10062021033D
librxdock.so/0.1.0
 59 58  0  0  0  0  0  0  0  0999 V2000
  -11.7520   -3.3054  -19.0031 C   0  0  0  0  0  0
  -10.8472   -3.9077  -17.9307 C   0  0  0  0  0  0
  -11.1343   -3.3112  -16.5429 C   0  0  0  0  0  0
  -10.2513   -3.9089  -15.4191 C   0  0  0  0  0  0
  -10.6949   -5.3255  -14.9121 C   0  0  0  0  0  0
  -10.5021   -6.3365  -16.0660 C   0  0  0  0  0  0
   -9.9267   -5.8002  -13.6074 C   0  0  0  0  0  0
   -8.3308   -5.6616  -13.6141 C   0  0  0  0  0  0
   -7.4395   -5.2881  -12.3514 C   0  0  0  0  0  0
   -7.2376   -6.5029  -11.2537 C   0  0  0  0  0  0
   -6.0992   -7.4033  -11.7305 C   0  0  0  0  0  0
   -6.9679   -6.0519   -9.7475 C   0  0  0  0  0  0
   -7.9251   -5.0466   -8.9159 C   0  0  0  0  0  0
   -7.5434   -3.5498   -8.6511 C   0  0  0  0  0  0
   -6.3317   -3.2415   -7.6582 C   0  0  0  0  0  0
   -4.9122   -3.9280   -7.7484 C   0  0  0  0  0  0
   -3.9814   -3.9256   -6.5070 C   0  0  0  0  0  0
   -4.4499   -4.7887   -5.2722 C   0  0  0  0  0  0
   -5.7971   -4.4052   -4.6473 C   0  0  0  0  0  0
   -6.0335   -2.9178   -4.2598 C   0  0  0  0  0  0
   -7.0692   -2.5417   -3.1593 C   0  0  0  0  0  0
   -8.4413   -3.1919   -3.2697 C   0  0  0  0  0  0
   -6.4997   -2.7376   -1.8126 N   0  0  0  0  0  0
   -4.7559   -2.4650   -3.7435 O   0  0  0  0  0  0
   -4.5149   -6.1569   -5.6889 O   0  0  0  0  0  0
   -9.1488   -4.9942   -9.6685 O   0  0  0  0  0  0
   -7.8131   -6.9471  -14.0523 O   0  0  0  0  0  0
   -6.8268   -6.9289  -14.9863 C   0  0  0  0  0  0
   -6.1817   -5.9576  -15.3325 O   0  0  0  0  0  0
   -6.5897   -8.3378  -15.4556 C   0  0  0  0  0  0
   -7.8003   -8.9239  -16.1994 C   0  0  0  0  0  0
   -7.4002   -9.9917  -17.2256 C   0  0  0  0  0  0
   -6.6624   -9.3771  -18.3923 C   0  0  0  0  0  0
   -5.8611   -8.4559  -18.2788 O   0  0  0  0  0  0
   -6.9664   -9.9382  -19.5721 O   0  0  0  0  0  0
   -8.6991   -9.5431  -15.1202 C   0  0  0  0  0  0
   -9.6971   -8.9891  -14.6848 O   0  0  0  0  0  0
   -8.2716  -10.7253  -14.6559 O   0  0  0  0  0  0
  -10.5292   -5.2108  -12.3870 O   0  0  0  0  0  0
  -10.3479   -3.8584  -12.1497 C   0  0  0  0  0  0
   -9.6321   -3.1240  -12.8181 O   0  0  0  0  0  0
  -11.1523   -3.3650  -10.9399 C   0  0  0  0  0  0
  -11.2792   -1.8164  -10.7968 C   0  0  0  0  0  0
  -12.0452   -1.0494  -11.8901 C   0  0  0  0  0  0
  -13.5181   -0.9512  -11.6154 C   0  0  0  0  0  0
  -14.2456   -0.0254  -11.9471 O   0  0  0  0  0  0
  -13.9907   -2.0235  -10.9618 O   0  0  0  0  0  0
  -11.8262   -1.3438   -9.4441 C   0  0  0  0  0  0
  -11.6400   -1.9508   -8.4080 O   0  0  0  0  0  0
  -12.4437   -0.1438   -9.4562 O   0  0  0  0  0  0
   -6.6778   -1.9065   -1.2504 H   0  0  0  0  0  0
   -5.4816   -2.7882   -1.8927 H   0  0  0  0  0  0
   -4.8697   -1.4996   -3.6156 H   0  0  0  0  0  0
   -4.8187   -6.6912   -4.9321 H   0  0  0  0  0  0
   -9.7999   -4.4931   -9.1495 H   0  0  0  0  0  0
   -6.5454   -9.5254  -20.3504 H   0  0  0  0  0  0
   -8.8787  -11.1530  -14.0023 H   0  0  0  0  0  0
  -14.9482   -1.8670  -10.8200 H   0  0  0  0  0  0
  -11.8821    0.6144   -9.7315 H   0  0  0  0  0  0
  1  2  1  0  0  0
  2  3  1  0  0  0
  3  4  1  0  0  0
  4  5  1  0  0  0
  5  6  1  0  0  0
  5  7  1  0  0  0
  7  8  1  0  0  0
  7 39  1  0  0  0
  8  9  1  0  0  0
  8 27  1  0  0  0
  9 10  1  0  0  0
 10 11  1  0  0  0
 10 12  1  0  0  0
 12 13  1  0  0  0
 13 14  1  0  0  0
 13 26  1  0  0  0
 14 15  1  0  0  0
 15 16  1  0  0  0
 16 17  1  0  0  0
 17 18  1  0  0  0
 18 19  1  0  0  0
 18 25  1  0  0  0
 19 20  1  0  0  0
 20 21  1  0  0  0
 20 24  1  0  0  0
 21 22  1  0  0  0
 21 23  1  0  0  0
 23 51  1  0  0  0
 23 52  1  0  0  0
 24 53  1  0  0  0
 25 54  1  0  0  0
 26 55  1  0  0  0
 27 28  1  0  0  0
 28 29  2  0  0  0
 28 30  1  0  0  0
 30 31  1  0  0  0
 31 32  1  0  0  0
 31 36  1  0  0  0
 32 33  1  0  0  0
 33 34  2  0  0  0
 33 35  1  0  0  0
 35 56  1  0  0  0
 36 37  2  0  0  0
 36 38  1  0  0  0
 38 57  1  0  0  0
 39 40  1  0  0  0
 40 41  2  0  0  0
 40 42  1  0  0  0
 42 43  1  0  0  0
 43 44  1  0  0  0
 43 48  1  0  0  0
 44 45  1  0  0  0
 45 46  2  0  0  0
 45 47  1  0  0  0
 47 58  1  0  0  0
 48 49  2  0  0  0
 48 50  1  0  0  0
 50 59  1  0  0  0
M  END
>  <AUTHOR>
    GENERATED BY OPEN BABEL 2.4.1

>  <CHROM.1>
179.18801427,-77.92419823,65.97966670,-48.46855852,144.47204297,-71.54252549
75.24920845,134.57316940,83.09821084,54.16389061,-104.08261796,-69.22091971
172.74222820,49.49065641,-159.97435651,67.78812431,-60.19386194,-51.33805001
-179.06033542,-155.77581996,-48.03472327,172.46489667,131.61551838,12.97158138
65.31241000,152.26198959,-69.30051435,100.58273355,37.79608730,176.45230890
-176.31786531,-6.23666338,-166.18412067,64.46342058,88.44166058,30.78002749
148.51135872,179.42628156,-60.96811818,-8.60674611,-4.90945271,-11.57109875
1.73290537,0.67302491,-2.03246408

>  <COMPND>
    UNNAMED

>  <MASTER>
        0    0    0    0    0    0    0    0  109    0  109    0

>  <Name>
FB1.pdb

>  <RI>
0

>  <Rbt.Current_Directory>
/home/fc/tossine/FB1_39/p3/0_clust04

>  <Rbt.Executable>
rbdock/0.1.0

>  <Rbt.Library>
librxdock.so/0.1.0

>  <Rbt.Parameter_File>
/cluster/rxdock/data/scripts/dock.prm

>  <Rbt.Receptor>
rx_1.prm

>  <SCORE>
14.3785

>  <SCORE.INTER>
-0.0154072

>  <SCORE.INTER.CONST>
1

>  <SCORE.INTER.POLAR>
-2.09173

>  <SCORE.INTER.REPUL>
0.353072

>  <SCORE.INTER.ROT>
32

>  <SCORE.INTER.VDW>
-32.0689

>  <SCORE.INTER.norm>
-0.000308144

>  <SCORE.INTRA>
13.9103

>  <SCORE.INTRA.DIHEDRAL>
17.0897

>  <SCORE.INTRA.DIHEDRAL.0>
47.3121

>  <SCORE.INTRA.POLAR>
1.42045

>  <SCORE.INTRA.POLAR.0>
-1.47808

>  <SCORE.INTRA.REPUL>
0

>  <SCORE.INTRA.REPUL.0>
0

>  <SCORE.INTRA.VDW>
0.535892

>  <SCORE.INTRA.VDW.0>
-2.78316

>  <SCORE.INTRA.norm>
0.278206

>  <SCORE.RESTR>
0.483656

>  <SCORE.RESTR.CAVITY>
0.483656

>  <SCORE.RESTR.norm>
0.00967313

>  <SCORE.SYSTEM>
0

>  <SCORE.SYSTEM.CONST>
0

>  <SCORE.SYSTEM.DIHEDRAL>
0

>  <SCORE.SYSTEM.norm>
0

>  <SCORE.heavy>
50

>  <SCORE.norm>
0.28757

$$$$
