FB1.pdb
  RxDock  10062022213D
librxdock.so/0.1.0
 59 58  0  0  0  0  0  0  0  0999 V2000
   -7.7037   -7.6543  -12.8812 C   0  0  0  0  0  0
   -9.0363   -6.9090  -12.8805 C   0  0  0  0  0  0
   -9.5208   -6.6103  -11.4521 C   0  0  0  0  0  0
  -10.1245   -5.1931  -11.2884 C   0  0  0  0  0  0
  -10.6589   -4.8636   -9.8510 C   0  0  0  0  0  0
  -11.7786   -5.8726   -9.5062 C   0  0  0  0  0  0
   -9.5278   -4.8691   -8.7381 C   0  0  0  0  0  0
   -8.0241   -4.6187   -9.2306 C   0  0  0  0  0  0
   -6.9674   -5.7600   -9.5608 C   0  0  0  0  0  0
   -5.4206   -5.2354   -9.7924 C   0  0  0  0  0  0
   -4.9935   -5.5969  -11.2140 C   0  0  0  0  0  0
   -5.1584   -3.6833   -9.5335 C   0  0  0  0  0  0
   -5.3972   -2.9471   -8.1123 C   0  0  0  0  0  0
   -5.2234   -3.6885   -6.7425 C   0  0  0  0  0  0
   -4.7947   -2.8305   -5.4661 C   0  0  0  0  0  0
   -5.2656   -3.1375   -3.9901 C   0  0  0  0  0  0
   -5.7011   -4.5775   -3.6103 C   0  0  0  0  0  0
   -4.6456   -5.7230   -3.8610 C   0  0  0  0  0  0
   -4.5666   -6.2730   -5.2907 C   0  0  0  0  0  0
   -3.4302   -7.2780   -5.6323 C   0  0  0  0  0  0
   -2.1484   -6.8001   -6.3766 C   0  0  0  0  0  0
   -1.7502   -5.3448   -6.1740 C   0  0  0  0  0  0
   -1.0133   -7.7008   -6.0998 N   0  0  0  0  0  0
   -2.9613   -7.7542   -4.3450 O   0  0  0  0  0  0
   -3.3553   -5.2228   -3.4943 O   0  0  0  0  0  0
   -4.4373   -1.8774   -8.0844 O   0  0  0  0  0  0
   -8.1219   -3.8519  -10.4614 O   0  0  0  0  0  0
   -8.8404   -2.7000  -10.4151 C   0  0  0  0  0  0
   -9.3286   -2.1961   -9.4216 O   0  0  0  0  0  0
   -8.8493   -2.0890  -11.7892 C   0  0  0  0  0  0
   -9.9063   -2.7205  -12.7092 C   0  0  0  0  0  0
  -11.1563   -1.8437  -12.8583 C   0  0  0  0  0  0
  -11.7351   -1.4858  -11.5091 C   0  0  0  0  0  0
  -11.3132   -0.5697  -10.8116 O   0  0  0  0  0  0
  -12.7617   -2.2676  -11.1436 O   0  0  0  0  0  0
   -9.2252   -2.9003  -14.0730 C   0  0  0  0  0  0
   -9.0203   -3.9941  -14.5770 O   0  0  0  0  0  0
   -8.8266   -1.7569  -14.6472 O   0  0  0  0  0  0
   -9.8919   -3.9902   -7.6002 O   0  0  0  0  0  0
  -11.0245   -3.2012   -7.7130 C   0  0  0  0  0  0
  -11.5603   -2.8994   -8.7714 O   0  0  0  0  0  0
  -11.5498   -2.7353   -6.3487 C   0  0  0  0  0  0
  -11.1750   -1.2767   -5.9406 C   0  0  0  0  0  0
   -9.6827   -0.9274   -5.7940 C   0  0  0  0  0  0
   -8.8516   -2.0881   -5.3287 C   0  0  0  0  0  0
   -7.9272   -2.5973   -5.9474 O   0  0  0  0  0  0
   -9.2155   -2.5254   -4.1135 O   0  0  0  0  0  0
  -11.8117   -0.1872   -6.8123 C   0  0  0  0  0  0
  -12.4706   -0.4352   -7.8028 O   0  0  0  0  0  0
  -11.6841    1.0738   -6.3487 O   0  0  0  0  0  0
   -1.3514   -8.5188   -5.5947 H   0  0  0  0  0  0
   -0.3770   -7.2342   -5.4496 H   0  0  0  0  0  0
   -3.5481   -8.5106   -4.1331 H   0  0  0  0  0  0
   -3.2635   -4.3227   -3.8574 H   0  0  0  0  0  0
   -4.7424   -1.2164   -7.4405 H   0  0  0  0  0  0
  -13.6473   -1.8719  -11.2559 H   0  0  0  0  0  0
   -8.9351   -0.9536  -14.0799 H   0  0  0  0  0  0
   -8.6453   -3.2965   -3.9096 H   0  0  0  0  0  0
  -11.1095    1.1740   -5.5575 H   0  0  0  0  0  0
  1  2  1  0  0  0
  2  3  1  0  0  0
  3  4  1  0  0  0
  4  5  1  0  0  0
  5  6  1  0  0  0
  5  7  1  0  0  0
  7  8  1  0  0  0
  7 39  1  0  0  0
  8  9  1  0  0  0
  8 27  1  0  0  0
  9 10  1  0  0  0
 10 11  1  0  0  0
 10 12  1  0  0  0
 12 13  1  0  0  0
 13 14  1  0  0  0
 13 26  1  0  0  0
 14 15  1  0  0  0
 15 16  1  0  0  0
 16 17  1  0  0  0
 17 18  1  0  0  0
 18 19  1  0  0  0
 18 25  1  0  0  0
 19 20  1  0  0  0
 20 21  1  0  0  0
 20 24  1  0  0  0
 21 22  1  0  0  0
 21 23  1  0  0  0
 23 51  1  0  0  0
 23 52  1  0  0  0
 24 53  1  0  0  0
 25 54  1  0  0  0
 26 55  1  0  0  0
 27 28  1  0  0  0
 28 29  2  0  0  0
 28 30  1  0  0  0
 30 31  1  0  0  0
 31 32  1  0  0  0
 31 36  1  0  0  0
 32 33  1  0  0  0
 33 34  2  0  0  0
 33 35  1  0  0  0
 35 56  1  0  0  0
 36 37  2  0  0  0
 36 38  1  0  0  0
 38 57  1  0  0  0
 39 40  1  0  0  0
 40 41  2  0  0  0
 40 42  1  0  0  0
 42 43  1  0  0  0
 43 44  1  0  0  0
 43 48  1  0  0  0
 44 45  1  0  0  0
 45 46  2  0  0  0
 45 47  1  0  0  0
 47 58  1  0  0  0
 48 49  2  0  0  0
 48 50  1  0  0  0
 50 59  1  0  0  0
M  END
>  <AUTHOR>
    GENERATED BY OPEN BABEL 2.4.1

>  <CHROM.1>
138.60584352,178.70836301,-60.51453104,23.52855240,-95.50003800,-7.14931116
-169.80329920,54.11712304,-118.83905049,60.65561442,30.71697859,151.42827619
159.01017763,146.77478476,24.29604105,56.70501763,-82.26539959,172.74220172
-44.51127068,-100.40094218,27.83305347,86.93675314,8.51505302,5.78624648
81.68814311,102.07828995,-53.95396623,115.70934601,81.99577097,-101.88158348
6.11451457,-19.81292340,100.35117090,-61.27364939,-31.59511730,-5.42826073
118.95314536,178.00250152,6.74199290,-7.97123538,-3.75122293,-8.50241718
-2.66241846,-0.57906209,1.25922324

>  <COMPND>
    UNNAMED

>  <MASTER>
        0    0    0    0    0    0    0    0  109    0  109    0

>  <Name>
FB1.pdb

>  <RI>
0

>  <Rbt.Current_Directory>
/home/fc/tossine/FB1_39/p3/0_clust04

>  <Rbt.Executable>
rbdock/0.1.0

>  <Rbt.Library>
librxdock.so/0.1.0

>  <Rbt.Parameter_File>
/cluster/rxdock/data/scripts/dock.prm

>  <Rbt.Receptor>
rx_3.prm

>  <SCORE>
67.5257

>  <SCORE.INTER>
24.4759

>  <SCORE.INTER.CONST>
1

>  <SCORE.INTER.POLAR>
-1.95998

>  <SCORE.INTER.REPUL>
0.218942

>  <SCORE.INTER.ROT>
32

>  <SCORE.INTER.VDW>
-7.35489

>  <SCORE.INTER.norm>
0.489518

>  <SCORE.INTRA>
38.9899

>  <SCORE.INTRA.DIHEDRAL>
50.7174

>  <SCORE.INTRA.DIHEDRAL.0>
47.3121

>  <SCORE.INTRA.POLAR>
1.45305

>  <SCORE.INTRA.POLAR.0>
-1.47808

>  <SCORE.INTRA.REPUL>
0

>  <SCORE.INTRA.REPUL.0>
0

>  <SCORE.INTRA.VDW>
8.69089

>  <SCORE.INTRA.VDW.0>
-2.78316

>  <SCORE.INTRA.norm>
0.779799

>  <SCORE.RESTR>
4.05983

>  <SCORE.RESTR.CAVITY>
4.05983

>  <SCORE.RESTR.norm>
0.0811966

>  <SCORE.SYSTEM>
0

>  <SCORE.SYSTEM.CONST>
0

>  <SCORE.SYSTEM.DIHEDRAL>
0

>  <SCORE.SYSTEM.norm>
0

>  <SCORE.heavy>
50

>  <SCORE.norm>
1.35051

$$$$
