FB1.pdb
  RxDock  10062021493D
librxdock.so/0.1.0
 59 58  0  0  0  0  0  0  0  0999 V2000
   -7.9618   -9.3829  -15.1451 C   0  0  0  0  0  0
   -9.1020   -8.9112  -14.2457 C   0  0  0  0  0  0
   -8.6660   -8.8205  -12.7740 C   0  0  0  0  0  0
   -9.6616   -8.0375  -11.8821 C   0  0  0  0  0  0
   -9.9284   -6.5580  -12.3298 C   0  0  0  0  0  0
  -11.3329   -6.1458  -11.8316 C   0  0  0  0  0  0
   -8.8248   -5.5352  -11.8260 C   0  0  0  0  0  0
   -8.8832   -5.1059  -10.2837 C   0  0  0  0  0  0
   -7.6413   -5.0891   -9.2910 C   0  0  0  0  0  0
   -8.0059   -4.7391   -7.7206 C   0  0  0  0  0  0
   -6.7911   -5.0703   -6.8553 C   0  0  0  0  0  0
   -8.4817   -3.2454   -7.4254 C   0  0  0  0  0  0
   -9.3244   -2.8032   -6.1166 C   0  0  0  0  0  0
   -8.6389   -2.4885   -4.7429 C   0  0  0  0  0  0
   -7.4224   -3.4105   -4.2746 C   0  0  0  0  0  0
   -6.6148   -3.2026   -2.9334 C   0  0  0  0  0  0
   -5.2182   -3.8592   -2.7722 C   0  0  0  0  0  0
   -4.0038   -3.1081   -3.4433 C   0  0  0  0  0  0
   -4.3548   -2.0858   -4.5315 C   0  0  0  0  0  0
   -4.9545   -2.6080   -5.8679 C   0  0  0  0  0  0
   -5.3297   -1.6157   -7.0081 C   0  0  0  0  0  0
   -6.2796   -0.4854   -6.6372 C   0  0  0  0  0  0
   -4.1190   -1.0918   -7.6684 N   0  0  0  0  0  0
   -3.9180   -3.4522   -6.4309 O   0  0  0  0  0  0
   -3.2725   -2.4395   -2.4100 O   0  0  0  0  0  0
   -9.9825   -1.5827   -6.4958 O   0  0  0  0  0  0
   -9.3810   -3.7406  -10.2605 O   0  0  0  0  0  0
  -10.6459   -3.5528   -9.8023 C   0  0  0  0  0  0
  -11.2890   -4.3325   -9.1256 O   0  0  0  0  0  0
  -11.0904   -2.1683  -10.1856 C   0  0  0  0  0  0
  -11.6845   -2.1100  -11.6020 C   0  0  0  0  0  0
  -12.0445   -0.6819  -12.0310 C   0  0  0  0  0  0
  -12.4515   -0.6359  -13.4855 C   0  0  0  0  0  0
  -11.6689   -0.8037  -14.4145 O   0  0  0  0  0  0
  -13.7583   -0.3944  -13.6673 O   0  0  0  0  0  0
  -10.6086   -2.6832  -12.5346 C   0  0  0  0  0  0
  -10.7755   -3.6901  -13.2060 O   0  0  0  0  0  0
   -9.4473   -2.0146  -12.5161 O   0  0  0  0  0  0
   -7.4659   -5.9724  -12.2286 O   0  0  0  0  0  0
   -7.1698   -6.0437  -13.5796 C   0  0  0  0  0  0
   -6.2621   -6.7103  -14.0593 O   0  0  0  0  0  0
   -8.1149   -5.1852  -14.4306 C   0  0  0  0  0  0
   -8.4852   -5.7688  -15.8294 C   0  0  0  0  0  0
   -9.4936   -4.9903  -16.6940 C   0  0  0  0  0  0
  -10.7931   -4.7297  -15.9884 C   0  0  0  0  0  0
  -11.5577   -5.5845  -15.5625 O   0  0  0  0  0  0
  -11.0444   -3.4198  -15.8430 O   0  0  0  0  0  0
   -7.2821   -6.0975  -16.7220 C   0  0  0  0  0  0
   -6.7247   -7.1772  -16.7076 O   0  0  0  0  0  0
   -6.9417   -5.1409  -17.6110 O   0  0  0  0  0  0
   -4.3900   -0.5869   -8.5111 H   0  0  0  0  0  0
   -3.5613   -1.8812   -8.0021 H   0  0  0  0  0  0
   -4.3059   -3.7977   -7.2625 H   0  0  0  0  0  0
   -2.9266   -3.1140   -1.7968 H   0  0  0  0  0  0
   -9.3365   -1.0243   -6.9600 H   0  0  0  0  0  0
  -14.0455   -0.3363  -14.5988 H   0  0  0  0  0  0
   -9.5308   -1.0538  -12.2953 H   0  0  0  0  0  0
  -11.8487   -3.3476  -15.2870 H   0  0  0  0  0  0
   -6.2810   -5.4117  -18.2865 H   0  0  0  0  0  0
  1  2  1  0  0  0
  2  3  1  0  0  0
  3  4  1  0  0  0
  4  5  1  0  0  0
  5  6  1  0  0  0
  5  7  1  0  0  0
  7  8  1  0  0  0
  7 39  1  0  0  0
  8  9  1  0  0  0
  8 27  1  0  0  0
  9 10  1  0  0  0
 10 11  1  0  0  0
 10 12  1  0  0  0
 12 13  1  0  0  0
 13 14  1  0  0  0
 13 26  1  0  0  0
 14 15  1  0  0  0
 15 16  1  0  0  0
 16 17  1  0  0  0
 17 18  1  0  0  0
 18 19  1  0  0  0
 18 25  1  0  0  0
 19 20  1  0  0  0
 20 21  1  0  0  0
 20 24  1  0  0  0
 21 22  1  0  0  0
 21 23  1  0  0  0
 23 51  1  0  0  0
 23 52  1  0  0  0
 24 53  1  0  0  0
 25 54  1  0  0  0
 26 55  1  0  0  0
 27 28  1  0  0  0
 28 29  2  0  0  0
 28 30  1  0  0  0
 30 31  1  0  0  0
 31 32  1  0  0  0
 31 36  1  0  0  0
 32 33  1  0  0  0
 33 34  2  0  0  0
 33 35  1  0  0  0
 35 56  1  0  0  0
 36 37  2  0  0  0
 36 38  1  0  0  0
 38 57  1  0  0  0
 39 40  1  0  0  0
 40 41  2  0  0  0
 40 42  1  0  0  0
 42 43  1  0  0  0
 43 44  1  0  0  0
 43 48  1  0  0  0
 44 45  1  0  0  0
 45 46  2  0  0  0
 45 47  1  0  0  0
 47 58  1  0  0  0
 48 49  2  0  0  0
 48 50  1  0  0  0
 50 59  1  0  0  0
M  END
>  <AUTHOR>
    GENERATED BY OPEN BABEL 2.4.1

>  <CHROM.1>
166.27113726,-58.55150498,153.68127225,-76.08363430,131.96861136,63.50357519
-174.58361724,108.31441543,167.29230516,159.42745272,83.35269382,-39.71629775
-44.54353942,178.77270245,-161.79323438,80.73547921,-18.65349157,-67.57188493
62.30795473,179.99804783,-54.83276647,178.68034144,169.63757228,18.62356484
85.59692839,-175.86878023,172.46749545,117.97782921,-70.07102974,178.48936535
-28.51071379,-159.06626208,-144.45812020,176.55701319,-55.14886994,89.02266877
-60.57999023,-173.55931242,-169.48994494,-8.48339319,-4.06419362,-10.64072783
-2.01723426,-0.66769845,1.04091707

>  <COMPND>
    UNNAMED

>  <MASTER>
        0    0    0    0    0    0    0    0  109    0  109    0

>  <Name>
FB1.pdb

>  <RI>
0

>  <Rbt.Current_Directory>
/home/fc/tossine/FB1_39/p3/0_clust04

>  <Rbt.Executable>
rbdock/0.1.0

>  <Rbt.Library>
librxdock.so/0.1.0

>  <Rbt.Parameter_File>
/cluster/rxdock/data/scripts/dock.prm

>  <Rbt.Receptor>
rx_2.prm

>  <SCORE>
5.56324

>  <SCORE.INTER>
-0.0291875

>  <SCORE.INTER.CONST>
1

>  <SCORE.INTER.POLAR>
-2.83143

>  <SCORE.INTER.REPUL>
0.425441

>  <SCORE.INTER.ROT>
32

>  <SCORE.INTER.VDW>
-29.9295

>  <SCORE.INTER.norm>
-0.00058375

>  <SCORE.INTRA>
3.92977

>  <SCORE.INTRA.DIHEDRAL>
7.45374

>  <SCORE.INTRA.DIHEDRAL.0>
47.3121

>  <SCORE.INTRA.POLAR>
1.47808

>  <SCORE.INTRA.POLAR.0>
-1.47808

>  <SCORE.INTRA.REPUL>
0.0184012

>  <SCORE.INTRA.REPUL.0>
0

>  <SCORE.INTRA.VDW>
-4.91456

>  <SCORE.INTRA.VDW.0>
-2.78316

>  <SCORE.INTRA.norm>
0.0785955

>  <SCORE.RESTR>
1.66266

>  <SCORE.RESTR.CAVITY>
1.66266

>  <SCORE.RESTR.norm>
0.0332531

>  <SCORE.SYSTEM>
0

>  <SCORE.SYSTEM.CONST>
0

>  <SCORE.SYSTEM.DIHEDRAL>
0

>  <SCORE.SYSTEM.norm>
0

>  <SCORE.heavy>
50

>  <SCORE.norm>
0.111265

$$$$
