FB1.pdb
  RxDock  10062021073D
librxdock.so/0.1.0
 59 58  0  0  0  0  0  0  0  0999 V2000
   -3.8817   -3.2154   -3.8848 C   0  0  0  0  0  0
   -4.2822   -2.4726   -5.1573 C   0  0  0  0  0  0
   -4.5041   -3.4373   -6.3338 C   0  0  0  0  0  0
   -4.7108   -2.7192   -7.6908 C   0  0  0  0  0  0
   -5.0832   -3.6617   -8.8881 C   0  0  0  0  0  0
   -4.0751   -4.8338   -8.9150 C   0  0  0  0  0  0
   -6.5755   -4.1978   -8.8315 C   0  0  0  0  0  0
   -7.1667   -4.8418  -10.1740 C   0  0  0  0  0  0
   -7.3026   -6.4002  -10.4585 C   0  0  0  0  0  0
   -7.6690   -6.7974  -12.0171 C   0  0  0  0  0  0
   -6.4179   -7.3740  -12.6777 C   0  0  0  0  0  0
   -8.8914   -7.8025  -12.2177 C   0  0  0  0  0  0
   -9.1155   -8.7062  -13.5412 C   0  0  0  0  0  0
   -8.4035  -10.0872  -13.7460 C   0  0  0  0  0  0
   -8.6833  -10.8907  -15.0970 C   0  0  0  0  0  0
   -8.2906  -10.3728  -16.5365 C   0  0  0  0  0  0
   -8.6712   -8.9294  -16.9600 C   0  0  0  0  0  0
  -10.2022   -8.5545  -16.8912 C   0  0  0  0  0  0
  -10.5326   -7.0586  -16.8166 C   0  0  0  0  0  0
   -9.3692   -6.0582  -16.5636 C   0  0  0  0  0  0
   -8.4169   -5.6422  -17.7236 C   0  0  0  0  0  0
   -9.0514   -4.8878  -18.8836 C   0  0  0  0  0  0
   -7.2410   -4.9185  -17.2041 N   0  0  0  0  0  0
  -10.0231   -4.8294  -16.1557 O   0  0  0  0  0  0
  -10.8441   -9.1050  -18.0465 O   0  0  0  0  0  0
  -10.5219   -9.0040  -13.5516 O   0  0  0  0  0  0
   -8.5214   -4.3323  -10.3067 O   0  0  0  0  0  0
   -8.7443   -3.4214  -11.2895 C   0  0  0  0  0  0
   -8.0515   -3.2395  -12.2725 O   0  0  0  0  0  0
  -10.0543   -2.7358  -11.0148 C   0  0  0  0  0  0
  -10.6161   -2.0184  -12.2526 C   0  0  0  0  0  0
  -10.8794   -2.9780  -13.4202 C   0  0  0  0  0  0
  -10.9763   -2.2298  -14.7294 C   0  0  0  0  0  0
  -11.9569   -2.2732  -15.4645 O   0  0  0  0  0  0
   -9.8829   -1.5071  -15.0141 O   0  0  0  0  0  0
  -11.9305   -1.3664  -11.8019 C   0  0  0  0  0  0
  -12.1548   -0.1707  -11.9143 O   0  0  0  0  0  0
  -12.7979   -2.2106  -11.2268 O   0  0  0  0  0  0
   -6.7841   -5.0780   -7.6561 O   0  0  0  0  0  0
   -7.3149   -4.5234   -6.5034 C   0  0  0  0  0  0
   -8.0002   -3.5097   -6.4701 O   0  0  0  0  0  0
   -6.9496   -5.3258   -5.2476 C   0  0  0  0  0  0
   -6.9031   -4.5150   -3.9154 C   0  0  0  0  0  0
   -7.8377   -3.2995   -3.7754 C   0  0  0  0  0  0
   -7.8178   -2.6997   -2.3991 C   0  0  0  0  0  0
   -8.7734   -2.6260   -1.6389 O   0  0  0  0  0  0
   -6.6023   -2.2484   -2.0535 O   0  0  0  0  0  0
   -7.0685   -5.3618   -2.6474 C   0  0  0  0  0  0
   -8.0826   -5.9821   -2.3952 O   0  0  0  0  0  0
   -5.9691   -5.4638   -1.8713 O   0  0  0  0  0  0
   -7.5103   -3.9619  -16.9783 H   0  0  0  0  0  0
   -6.5544   -4.8282  -17.9564 H   0  0  0  0  0  0
  -10.5943   -4.5899  -16.9159 H   0  0  0  0  0  0
  -10.8003  -10.0769  -17.9847 H   0  0  0  0  0  0
  -10.7195   -9.4939  -14.3673 H   0  0  0  0  0  0
   -9.2695   -1.3678  -14.2672 H   0  0  0  0  0  0
  -12.5245   -3.1610  -11.2541 H   0  0  0  0  0  0
   -6.6672   -1.9508   -1.1216 H   0  0  0  0  0  0
   -5.1640   -5.0240   -2.2243 H   0  0  0  0  0  0
  1  2  1  0  0  0
  2  3  1  0  0  0
  3  4  1  0  0  0
  4  5  1  0  0  0
  5  6  1  0  0  0
  5  7  1  0  0  0
  7  8  1  0  0  0
  7 39  1  0  0  0
  8  9  1  0  0  0
  8 27  1  0  0  0
  9 10  1  0  0  0
 10 11  1  0  0  0
 10 12  1  0  0  0
 12 13  1  0  0  0
 13 14  1  0  0  0
 13 26  1  0  0  0
 14 15  1  0  0  0
 15 16  1  0  0  0
 16 17  1  0  0  0
 17 18  1  0  0  0
 18 19  1  0  0  0
 18 25  1  0  0  0
 19 20  1  0  0  0
 20 21  1  0  0  0
 20 24  1  0  0  0
 21 22  1  0  0  0
 21 23  1  0  0  0
 23 51  1  0  0  0
 23 52  1  0  0  0
 24 53  1  0  0  0
 25 54  1  0  0  0
 26 55  1  0  0  0
 27 28  1  0  0  0
 28 29  2  0  0  0
 28 30  1  0  0  0
 30 31  1  0  0  0
 31 32  1  0  0  0
 31 36  1  0  0  0
 32 33  1  0  0  0
 33 34  2  0  0  0
 33 35  1  0  0  0
 35 56  1  0  0  0
 36 37  2  0  0  0
 36 38  1  0  0  0
 38 57  1  0  0  0
 39 40  1  0  0  0
 40 41  2  0  0  0
 40 42  1  0  0  0
 42 43  1  0  0  0
 43 44  1  0  0  0
 43 48  1  0  0  0
 44 45  1  0  0  0
 45 46  2  0  0  0
 45 47  1  0  0  0
 47 58  1  0  0  0
 48 49  2  0  0  0
 48 50  1  0  0  0
 50 59  1  0  0  0
M  END
>  <AUTHOR>
    GENERATED BY OPEN BABEL 2.4.1

>  <CHROM.1>
-171.66404974,-174.12638300,-49.80121159,164.57384781,101.43197950,95.81292080
-168.77971091,108.42020821,106.41559457,-158.35720311,83.65874649,-179.35532724
175.92126836,63.58177959,-49.05254187,-57.04028099,159.02445610,-10.54687777
65.55117416,78.71630264,63.58142286,-59.97309608,-77.38951066,20.40953116
-162.22562860,60.33116025,-160.90817430,123.78596078,-122.38107561,-14.70753435
-6.32951709,23.79133359,152.97826877,30.25317317,173.34034914,-63.65322173
-117.94317159,-175.13441611,-3.11013907,-8.31651519,-4.90567359,-10.65449300
-1.07773443,1.03737316,-2.22856014

>  <COMPND>
    UNNAMED

>  <MASTER>
        0    0    0    0    0    0    0    0  109    0  109    0

>  <Name>
FB1.pdb

>  <RI>
0

>  <Rbt.Current_Directory>
/home/fc/tossine/FB1_39/p3/0_clust04

>  <Rbt.Executable>
rbdock/0.1.0

>  <Rbt.Library>
librxdock.so/0.1.0

>  <Rbt.Parameter_File>
/cluster/rxdock/data/scripts/dock.prm

>  <Rbt.Receptor>
rx_1.prm

>  <SCORE>
13.1487

>  <SCORE.INTER>
2.34524

>  <SCORE.INTER.CONST>
1

>  <SCORE.INTER.POLAR>
-1.0279

>  <SCORE.INTER.REPUL>
0.400344

>  <SCORE.INTER.ROT>
32

>  <SCORE.INTER.VDW>
-33.5616

>  <SCORE.INTER.norm>
0.0469048

>  <SCORE.INTRA>
10.7638

>  <SCORE.INTRA.DIHEDRAL>
11.9378

>  <SCORE.INTRA.DIHEDRAL.0>
47.3121

>  <SCORE.INTRA.POLAR>
1.47808

>  <SCORE.INTRA.POLAR.0>
-1.47808

>  <SCORE.INTRA.REPUL>
0

>  <SCORE.INTRA.REPUL.0>
0

>  <SCORE.INTRA.VDW>
-0.230525

>  <SCORE.INTRA.VDW.0>
-2.78316

>  <SCORE.INTRA.norm>
0.215276

>  <SCORE.RESTR>
0.0396252

>  <SCORE.RESTR.CAVITY>
0.0396252

>  <SCORE.RESTR.norm>
0.000792505

>  <SCORE.SYSTEM>
0

>  <SCORE.SYSTEM.CONST>
0

>  <SCORE.SYSTEM.DIHEDRAL>
0

>  <SCORE.SYSTEM.norm>
0

>  <SCORE.heavy>
50

>  <SCORE.norm>
0.262974

$$$$
