FB1.pdb
  RxDock  10062022243D
librxdock.so/0.1.0
 59 58  0  0  0  0  0  0  0  0999 V2000
  -12.5736    1.0495  -12.0310 C   0  0  0  0  0  0
  -11.9684    0.0688  -11.0293 C   0  0  0  0  0  0
  -12.3442   -1.3855  -11.3582 C   0  0  0  0  0  0
  -11.6571   -2.4243  -10.4371 C   0  0  0  0  0  0
  -10.2007   -2.8236  -10.8610 C   0  0  0  0  0  0
   -9.3482   -1.5361  -10.9414 C   0  0  0  0  0  0
   -9.5297   -3.8891   -9.8954 C   0  0  0  0  0  0
   -9.2240   -3.4177   -8.3952 C   0  0  0  0  0  0
   -7.8686   -2.7460   -7.9055 C   0  0  0  0  0  0
   -6.7400   -3.7959   -7.3178 C   0  0  0  0  0  0
   -7.4076   -4.6930   -6.2768 C   0  0  0  0  0  0
   -5.9887   -4.6977   -8.3982 C   0  0  0  0  0  0
   -4.7292   -4.1957   -9.2816 C   0  0  0  0  0  0
   -3.8737   -2.9427   -8.8888 C   0  0  0  0  0  0
   -4.2743   -2.1349   -7.5712 C   0  0  0  0  0  0
   -3.6741   -2.4185   -6.1380 C   0  0  0  0  0  0
   -4.2819   -3.5473   -5.2641 C   0  0  0  0  0  0
   -4.1229   -3.3935   -3.7020 C   0  0  0  0  0  0
   -4.5914   -2.0632   -3.0992 C   0  0  0  0  0  0
   -4.5147   -1.8853   -1.5562 C   0  0  0  0  0  0
   -5.3696   -2.7821   -0.6127 C   0  0  0  0  0  0
   -4.9807   -2.7811    0.8590 C   0  0  0  0  0  0
   -6.8078   -2.4978   -0.7783 N   0  0  0  0  0  0
   -3.1376   -2.1913   -1.2189 O   0  0  0  0  0  0
   -4.8497   -4.4570   -3.0772 O   0  0  0  0  0  0
   -3.8069   -5.2983   -9.2702 O   0  0  0  0  0  0
  -10.2500   -2.4451   -8.0578 O   0  0  0  0  0  0
  -10.0926   -1.7607   -6.8950 C   0  0  0  0  0  0
  -10.3462   -0.5852   -6.7122 O   0  0  0  0  0  0
   -9.6447   -2.7253   -5.8318 C   0  0  0  0  0  0
   -9.3560   -2.0328   -4.4903 C   0  0  0  0  0  0
  -10.6354   -1.5881   -3.7701 C   0  0  0  0  0  0
  -11.8621   -1.8993   -4.5959 C   0  0  0  0  0  0
  -12.4035   -1.0876   -5.3386 O   0  0  0  0  0  0
  -12.3058   -3.1555   -4.4412 O   0  0  0  0  0  0
   -8.6041   -3.0634   -3.6369 C   0  0  0  0  0  0
   -9.1670   -3.8463   -2.8868 O   0  0  0  0  0  0
   -7.2696   -3.0022   -3.7441 O   0  0  0  0  0  0
  -10.2592   -5.1799   -9.9330 O   0  0  0  0  0  0
  -10.2336   -5.9175  -11.1050 C   0  0  0  0  0  0
  -11.0942   -5.8733  -11.9744 O   0  0  0  0  0  0
   -8.9915   -6.8128  -11.2044 C   0  0  0  0  0  0
   -8.2641   -6.8112  -12.5848 C   0  0  0  0  0  0
   -7.4796   -5.5492  -12.9875 C   0  0  0  0  0  0
   -7.6480   -5.1911  -14.4360 C   0  0  0  0  0  0
   -7.0510   -5.7048  -15.3721 O   0  0  0  0  0  0
   -8.5643   -4.2291  -14.6235 O   0  0  0  0  0  0
   -7.3408   -8.0130  -12.8204 C   0  0  0  0  0  0
   -7.2903   -8.9646  -12.0663 O   0  0  0  0  0  0
   -6.6576   -7.9993  -13.9841 O   0  0  0  0  0  0
   -7.0698   -2.6557   -1.7503 H   0  0  0  0  0  0
   -6.9634   -1.4993   -0.6224 H   0  0  0  0  0  0
   -3.0856   -3.1696   -1.2580 H   0  0  0  0  0  0
   -4.3761   -4.7124   -2.2642 H   0  0  0  0  0  0
   -3.1600   -5.1566   -9.9814 H   0  0  0  0  0  0
  -11.8048   -3.6986   -3.8028 H   0  0  0  0  0  0
   -6.9442   -2.5215   -4.5452 H   0  0  0  0  0  0
   -8.4779   -3.9360  -15.5552 H   0  0  0  0  0  0
   -5.6800   -8.0547  -13.8975 H   0  0  0  0  0  0
  1  2  1  0  0  0
  2  3  1  0  0  0
  3  4  1  0  0  0
  4  5  1  0  0  0
  5  6  1  0  0  0
  5  7  1  0  0  0
  7  8  1  0  0  0
  7 39  1  0  0  0
  8  9  1  0  0  0
  8 27  1  0  0  0
  9 10  1  0  0  0
 10 11  1  0  0  0
 10 12  1  0  0  0
 12 13  1  0  0  0
 13 14  1  0  0  0
 13 26  1  0  0  0
 14 15  1  0  0  0
 15 16  1  0  0  0
 16 17  1  0  0  0
 17 18  1  0  0  0
 18 19  1  0  0  0
 18 25  1  0  0  0
 19 20  1  0  0  0
 20 21  1  0  0  0
 20 24  1  0  0  0
 21 22  1  0  0  0
 21 23  1  0  0  0
 23 51  1  0  0  0
 23 52  1  0  0  0
 24 53  1  0  0  0
 25 54  1  0  0  0
 26 55  1  0  0  0
 27 28  1  0  0  0
 28 29  2  0  0  0
 28 30  1  0  0  0
 30 31  1  0  0  0
 31 32  1  0  0  0
 31 36  1  0  0  0
 32 33  1  0  0  0
 33 34  2  0  0  0
 33 35  1  0  0  0
 35 56  1  0  0  0
 36 37  2  0  0  0
 36 38  1  0  0  0
 38 57  1  0  0  0
 39 40  1  0  0  0
 40 41  2  0  0  0
 40 42  1  0  0  0
 42 43  1  0  0  0
 43 44  1  0  0  0
 43 48  1  0  0  0
 44 45  1  0  0  0
 45 46  2  0  0  0
 45 47  1  0  0  0
 47 58  1  0  0  0
 48 49  2  0  0  0
 48 50  1  0  0  0
 50 59  1  0  0  0
M  END
>  <AUTHOR>
    GENERATED BY OPEN BABEL 2.4.1

>  <CHROM.1>
175.25291291,-83.33825337,56.33369863,-66.06875235,-90.27790821,66.93360365
-92.54433307,-171.05580159,-50.58492319,81.74862574,17.84569127,-0.36347622
163.99083184,91.92510088,-83.43479446,-153.88586679,52.51070260,177.33429318
146.40869764,-63.82105156,165.23411709,-76.73365487,58.27165122,141.23756825
176.58759637,72.96461951,-2.21525320,-90.75604693,-95.63385158,1.73199399
-18.43629195,-94.88879541,-135.23635961,71.46759169,-139.48885438,7.91586692
-80.51644037,168.79884753,123.10565903,-7.99777981,-3.54054970,-7.74302779
1.84894640,0.43247668,-1.92140516

>  <COMPND>
    UNNAMED

>  <MASTER>
        0    0    0    0    0    0    0    0  109    0  109    0

>  <Name>
FB1.pdb

>  <RI>
0

>  <Rbt.Current_Directory>
/home/fc/tossine/FB1_39/p3/0_clust04

>  <Rbt.Executable>
rbdock/0.1.0

>  <Rbt.Library>
librxdock.so/0.1.0

>  <Rbt.Parameter_File>
/cluster/rxdock/data/scripts/dock.prm

>  <Rbt.Receptor>
rx_3.prm

>  <SCORE>
71.5828

>  <SCORE.INTER>
23.3434

>  <SCORE.INTER.CONST>
1

>  <SCORE.INTER.POLAR>
-2.58322

>  <SCORE.INTER.REPUL>
1.24064

>  <SCORE.INTER.ROT>
32

>  <SCORE.INTER.VDW>
-11.4769

>  <SCORE.INTER.norm>
0.466868

>  <SCORE.INTRA>
46.4387

>  <SCORE.INTRA.DIHEDRAL>
65.7104

>  <SCORE.INTRA.DIHEDRAL.0>
47.3121

>  <SCORE.INTRA.POLAR>
0.478077

>  <SCORE.INTRA.POLAR.0>
-1.47808

>  <SCORE.INTRA.REPUL>
0

>  <SCORE.INTRA.REPUL.0>
0

>  <SCORE.INTRA.VDW>
11.9581

>  <SCORE.INTRA.VDW.0>
-2.78316

>  <SCORE.INTRA.norm>
0.928775

>  <SCORE.RESTR>
1.80063

>  <SCORE.RESTR.CAVITY>
1.80063

>  <SCORE.RESTR.norm>
0.0360126

>  <SCORE.SYSTEM>
0

>  <SCORE.SYSTEM.CONST>
0

>  <SCORE.SYSTEM.DIHEDRAL>
0

>  <SCORE.SYSTEM.norm>
0

>  <SCORE.heavy>
50

>  <SCORE.norm>
1.43166

$$$$
