FB1.pdb
  RxDock  10062022283D
librxdock.so/0.1.0
 59 58  0  0  0  0  0  0  0  0999 V2000
    6.9488    4.5298  -13.3730 C   0  0  0  0  0  0
    6.1693    3.5916  -12.4545 C   0  0  0  0  0  0
    6.6368    3.7062  -10.9942 C   0  0  0  0  0  0
    5.8285    4.7359  -10.1659 C   0  0  0  0  0  0
    6.5161    5.2001   -8.8347 C   0  0  0  0  0  0
    6.0030    6.6178   -8.4919 C   0  0  0  0  0  0
    6.2843    4.2040   -7.6215 C   0  0  0  0  0  0
    6.7793    2.6932   -7.8182 C   0  0  0  0  0  0
    5.8939    1.5090   -8.4029 C   0  0  0  0  0  0
    4.9697    0.7126   -7.2926 C   0  0  0  0  0  0
    4.4736    1.7232   -6.2599 C   0  0  0  0  0  0
    3.7329   -0.1132   -7.8699 C   0  0  0  0  0  0
    2.1867    0.1934   -7.5038 C   0  0  0  0  0  0
    0.9943   -0.3956   -8.3329 C   0  0  0  0  0  0
    0.2093   -1.6539   -7.7416 C   0  0  0  0  0  0
   -0.7362   -2.5910   -8.5916 C   0  0  0  0  0  0
   -2.0760   -3.0811   -7.9815 C   0  0  0  0  0  0
   -3.3282   -2.1429   -8.1834 C   0  0  0  0  0  0
   -4.4834   -2.3289   -7.1917 C   0  0  0  0  0  0
   -5.5560   -3.4108   -7.5037 C   0  0  0  0  0  0
   -5.2008   -4.9247   -7.4193 C   0  0  0  0  0  0
   -4.4038   -5.4995   -8.5819 C   0  0  0  0  0  0
   -4.5570   -5.2424   -6.1305 N   0  0  0  0  0  0
   -6.5837   -3.2097   -6.5000 O   0  0  0  0  0  0
   -2.8795   -0.7853   -8.1095 O   0  0  0  0  0  0
    2.0118   -0.3253   -6.1745 O   0  0  0  0  0  0
    7.9292    2.7546   -8.7051 O   0  0  0  0  0  0
    8.9540    1.9013   -8.4463 C   0  0  0  0  0  0
    8.9649    1.0248   -7.6031 O   0  0  0  0  0  0
   10.0465    2.1518   -9.4489 C   0  0  0  0  0  0
   10.1913    1.0058  -10.4628 C   0  0  0  0  0  0
    9.2830    1.1838  -11.6861 C   0  0  0  0  0  0
    9.6930    0.2591  -12.8087 C   0  0  0  0  0  0
    9.8974    0.6361  -13.9576 O   0  0  0  0  0  0
    9.8150   -1.0213  -12.4287 O   0  0  0  0  0  0
   11.6636    1.0100  -10.8967 C   0  0  0  0  0  0
   12.0419    1.4590  -11.9680 O   0  0  0  0  0  0
   12.4996    0.4335  -10.0222 O   0  0  0  0  0  0
    6.7749    4.7868   -6.3489 O   0  0  0  0  0  0
    7.6228    4.0275   -5.5598 C   0  0  0  0  0  0
    8.7815    4.3230   -5.2984 O   0  0  0  0  0  0
    6.9476    2.7531   -5.0360 C   0  0  0  0  0  0
    7.9114    1.6071   -4.5976 C   0  0  0  0  0  0
    9.3856    1.6956   -5.0329 C   0  0  0  0  0  0
   10.1422    0.4189   -4.8048 C   0  0  0  0  0  0
    9.8339   -0.4617   -4.0135 O   0  0  0  0  0  0
   11.2233    0.3153   -5.5928 O   0  0  0  0  0  0
    7.9005    1.3049   -3.0940 C   0  0  0  0  0  0
    7.6120    0.2145   -2.6418 O   0  0  0  0  0  0
    8.3384    2.3037   -2.2991 O   0  0  0  0  0  0
   -5.2721   -5.3099   -5.4075 H   0  0  0  0  0  0
   -3.9748   -4.4494   -5.8519 H   0  0  0  0  0  0
   -6.2406   -3.6634   -5.7014 H   0  0  0  0  0  0
   -3.6031   -0.2086   -8.4167 H   0  0  0  0  0  0
    2.6854    0.0794   -5.6028 H   0  0  0  0  0  0
   10.1605   -1.6275  -13.1118 H   0  0  0  0  0  0
   12.0888    0.2053   -9.1516 H   0  0  0  0  0  0
   11.5582   -0.6007   -5.4920 H   0  0  0  0  0  0
    8.4406    3.1765   -2.7396 H   0  0  0  0  0  0
  1  2  1  0  0  0
  2  3  1  0  0  0
  3  4  1  0  0  0
  4  5  1  0  0  0
  5  6  1  0  0  0
  5  7  1  0  0  0
  7  8  1  0  0  0
  7 39  1  0  0  0
  8  9  1  0  0  0
  8 27  1  0  0  0
  9 10  1  0  0  0
 10 11  1  0  0  0
 10 12  1  0  0  0
 12 13  1  0  0  0
 13 14  1  0  0  0
 13 26  1  0  0  0
 14 15  1  0  0  0
 15 16  1  0  0  0
 16 17  1  0  0  0
 17 18  1  0  0  0
 18 19  1  0  0  0
 18 25  1  0  0  0
 19 20  1  0  0  0
 20 21  1  0  0  0
 20 24  1  0  0  0
 21 22  1  0  0  0
 21 23  1  0  0  0
 23 51  1  0  0  0
 23 52  1  0  0  0
 24 53  1  0  0  0
 25 54  1  0  0  0
 26 55  1  0  0  0
 27 28  1  0  0  0
 28 29  2  0  0  0
 28 30  1  0  0  0
 30 31  1  0  0  0
 31 32  1  0  0  0
 31 36  1  0  0  0
 32 33  1  0  0  0
 33 34  2  0  0  0
 33 35  1  0  0  0
 35 56  1  0  0  0
 36 37  2  0  0  0
 36 38  1  0  0  0
 38 57  1  0  0  0
 39 40  1  0  0  0
 40 41  2  0  0  0
 40 42  1  0  0  0
 42 43  1  0  0  0
 43 44  1  0  0  0
 43 48  1  0  0  0
 44 45  1  0  0  0
 45 46  2  0  0  0
 45 47  1  0  0  0
 47 58  1  0  0  0
 48 49  2  0  0  0
 48 50  1  0  0  0
 50 59  1  0  0  0
M  END
>  <AUTHOR>
    GENERATED BY OPEN BABEL 2.4.1

>  <CHROM.1>
92.15144269,-162.53924369,153.25420143,58.37569665,-90.55100499,-129.21428038
-86.55745124,142.11961609,35.95952134,-118.00303328,165.03796865,101.64060156
54.79263354,-163.08025275,-138.87205814,87.85248968,-158.24321562,-86.32222070
168.28538289,69.96322230,-77.15725843,-80.99293850,78.63267785,5.62734378
-109.48959028,88.21293936,165.41046606,-103.17115477,-128.57661929,-174.44435214
-9.00627632,116.30557883,158.62292821,-14.60359312,-168.02930941,120.80712591
-21.97442003,-170.25427214,12.19136635,5.18401502,0.76844422,-7.94623127
0.07897605,-0.37408430,-1.60218807

>  <COMPND>
    UNNAMED

>  <MASTER>
        0    0    0    0    0    0    0    0  109    0  109    0

>  <Name>
FB1.pdb

>  <RI>
0

>  <Rbt.Current_Directory>
/home/fc/tossine/FB1_39/p3/0_clust04

>  <Rbt.Executable>
rbdock/0.1.0

>  <Rbt.Library>
librxdock.so/0.1.0

>  <Rbt.Parameter_File>
/cluster/rxdock/data/scripts/dock.prm

>  <Rbt.Receptor>
rx_3.prm

>  <SCORE>
65.7074

>  <SCORE.INTER>
27.0066

>  <SCORE.INTER.CONST>
1

>  <SCORE.INTER.POLAR>
-1.16156

>  <SCORE.INTER.REPUL>
1.17966

>  <SCORE.INTER.ROT>
32

>  <SCORE.INTER.VDW>
-12.3424

>  <SCORE.INTER.norm>
0.540131

>  <SCORE.INTRA>
33.9544

>  <SCORE.INTRA.DIHEDRAL>
46.2536

>  <SCORE.INTRA.DIHEDRAL.0>
47.3121

>  <SCORE.INTRA.POLAR>
1.47808

>  <SCORE.INTRA.POLAR.0>
-1.47808

>  <SCORE.INTRA.REPUL>
0

>  <SCORE.INTRA.REPUL.0>
0

>  <SCORE.INTRA.VDW>
5.80215

>  <SCORE.INTRA.VDW.0>
-2.78316

>  <SCORE.INTRA.norm>
0.679088

>  <SCORE.RESTR>
4.74639

>  <SCORE.RESTR.CAVITY>
4.74639

>  <SCORE.RESTR.norm>
0.0949278

>  <SCORE.SYSTEM>
0

>  <SCORE.SYSTEM.CONST>
0

>  <SCORE.SYSTEM.DIHEDRAL>
0

>  <SCORE.SYSTEM.norm>
0

>  <SCORE.heavy>
50

>  <SCORE.norm>
1.31415

$$$$
