FB1.pdb
  RxDock  10062020023D
librxdock.so/0.1.0
 59 58  0  0  0  0  0  0  0  0999 V2000
   -7.5382  -11.0264  -20.3259 C   0  0  0  0  0  0
   -7.7557  -11.4262  -18.8684 C   0  0  0  0  0  0
   -8.4047  -10.2922  -18.0577 C   0  0  0  0  0  0
   -7.4537   -9.0978  -17.7958 C   0  0  0  0  0  0
   -8.1670   -7.7600  -17.3935 C   0  0  0  0  0  0
   -9.0474   -7.3034  -18.5797 C   0  0  0  0  0  0
   -9.0232   -7.8744  -16.0624 C   0  0  0  0  0  0
   -8.4505   -8.8296  -14.9110 C   0  0  0  0  0  0
   -8.8512   -8.7520  -13.3743 C   0  0  0  0  0  0
   -8.8569   -7.2339  -12.7287 C   0  0  0  0  0  0
  -10.1840   -7.0206  -12.0024 C   0  0  0  0  0  0
   -7.6483   -6.8820  -11.7488 C   0  0  0  0  0  0
   -7.3845   -5.4127  -11.1243 C   0  0  0  0  0  0
   -5.9587   -4.9279  -10.6903 C   0  0  0  0  0  0
   -5.1945   -5.7460   -9.5519 C   0  0  0  0  0  0
   -4.4587   -5.0819   -8.3223 C   0  0  0  0  0  0
   -4.9357   -5.4032   -6.8812 C   0  0  0  0  0  0
   -5.9577   -4.3903   -6.2340 C   0  0  0  0  0  0
   -5.3528   -3.2588   -5.3936 C   0  0  0  0  0  0
   -6.2888   -2.1109   -4.9199 C   0  0  0  0  0  0
   -6.9450   -1.1476   -5.9528 C   0  0  0  0  0  0
   -6.0443   -0.6338   -7.0673 C   0  0  0  0  0  0
   -8.1835   -1.7311   -6.5025 N   0  0  0  0  0  0
   -7.4003   -2.7847   -4.2762 O   0  0  0  0  0  0
   -6.7319   -3.8094   -7.2889 O   0  0  0  0  0  0
   -7.7962   -4.4952  -12.1515 O   0  0  0  0  0  0
   -8.7900  -10.1873  -15.3032 O   0  0  0  0  0  0
  -10.0716  -10.5871  -15.0961 C   0  0  0  0  0  0
  -11.0543   -9.8706  -15.0758 O   0  0  0  0  0  0
  -10.0920  -12.0874  -14.9955 C   0  0  0  0  0  0
   -9.5729  -12.7716  -16.2702 C   0  0  0  0  0  0
   -9.0428  -14.1865  -16.0046 C   0  0  0  0  0  0
   -7.5721  -14.2887  -16.3364 C   0  0  0  0  0  0
   -6.7253  -13.5100  -15.9120 O   0  0  0  0  0  0
   -7.2767  -15.3189  -17.1428 O   0  0  0  0  0  0
  -10.7666  -12.8302  -17.2334 C   0  0  0  0  0  0
  -10.8201  -12.1845  -18.2691 O   0  0  0  0  0  0
  -11.7726  -13.6132  -16.8204 O   0  0  0  0  0  0
   -9.3847   -6.5336  -15.5414 O   0  0  0  0  0  0
   -9.0841   -5.4236  -16.3132 C   0  0  0  0  0  0
   -7.9626   -4.9520  -16.4476 O   0  0  0  0  0  0
  -10.3250   -4.8342  -16.9966 C   0  0  0  0  0  0
  -11.4621   -4.3565  -16.0408 C   0  0  0  0  0  0
  -11.0614   -3.5967  -14.7631 C   0  0  0  0  0  0
  -10.1984   -2.3993  -15.0390 C   0  0  0  0  0  0
  -10.5354   -1.4071  -15.6703 O   0  0  0  0  0  0
   -8.9778   -2.5097  -14.4928 O   0  0  0  0  0  0
  -12.5690   -3.5432  -16.7232 C   0  0  0  0  0  0
  -13.3628   -2.8608  -16.1061 O   0  0  0  0  0  0
  -12.5423   -3.5464  -18.0725 O   0  0  0  0  0  0
   -8.6401   -1.0435   -7.1002 H   0  0  0  0  0  0
   -8.8392   -1.8890   -5.7340 H   0  0  0  0  0  0
   -7.0191   -3.1589   -3.4539 H   0  0  0  0  0  0
   -6.1413   -3.2517   -7.8281 H   0  0  0  0  0  0
   -8.7406   -4.6437  -12.3265 H   0  0  0  0  0  0
   -6.3301  -15.4195  -17.3604 H   0  0  0  0  0  0
  -11.6237  -14.0428  -15.9417 H   0  0  0  0  0  0
   -8.5624   -3.3038  -14.8906 H   0  0  0  0  0  0
  -12.0185   -4.2714  -18.4802 H   0  0  0  0  0  0
  1  2  1  0  0  0
  2  3  1  0  0  0
  3  4  1  0  0  0
  4  5  1  0  0  0
  5  6  1  0  0  0
  5  7  1  0  0  0
  7  8  1  0  0  0
  7 39  1  0  0  0
  8  9  1  0  0  0
  8 27  1  0  0  0
  9 10  1  0  0  0
 10 11  1  0  0  0
 10 12  1  0  0  0
 12 13  1  0  0  0
 13 14  1  0  0  0
 13 26  1  0  0  0
 14 15  1  0  0  0
 15 16  1  0  0  0
 16 17  1  0  0  0
 17 18  1  0  0  0
 18 19  1  0  0  0
 18 25  1  0  0  0
 19 20  1  0  0  0
 20 21  1  0  0  0
 20 24  1  0  0  0
 21 22  1  0  0  0
 21 23  1  0  0  0
 23 51  1  0  0  0
 23 52  1  0  0  0
 24 53  1  0  0  0
 25 54  1  0  0  0
 26 55  1  0  0  0
 27 28  1  0  0  0
 28 29  2  0  0  0
 28 30  1  0  0  0
 30 31  1  0  0  0
 31 32  1  0  0  0
 31 36  1  0  0  0
 32 33  1  0  0  0
 33 34  2  0  0  0
 33 35  1  0  0  0
 35 56  1  0  0  0
 36 37  2  0  0  0
 36 38  1  0  0  0
 38 57  1  0  0  0
 39 40  1  0  0  0
 40 41  2  0  0  0
 40 42  1  0  0  0
 42 43  1  0  0  0
 43 44  1  0  0  0
 43 48  1  0  0  0
 44 45  1  0  0  0
 45 46  2  0  0  0
 45 47  1  0  0  0
 47 58  1  0  0  0
 48 49  2  0  0  0
 48 50  1  0  0  0
 50 59  1  0  0  0
M  END
>  <AUTHOR>
    GENERATED BY OPEN BABEL 2.4.1

>  <CHROM.1>
-71.12627022,161.38117960,-63.50720258,35.24798412,159.40537558,6.97075903
-46.19284570,-77.90560276,129.87309979,173.83159316,-153.77118606,-60.46432621
60.95010831,-133.67967520,118.56090891,-94.95028186,-92.63226311,170.58107411
-67.33183659,-65.51805093,-43.85936332,69.74931253,174.25967475,27.93611878
-60.17546894,156.12569721,-117.85872452,112.09226295,51.22049406,-178.88525094
0.86856894,-75.23900950,59.77794901,41.62318425,54.59442707,-163.78663817
64.02825552,60.37703889,18.50492079,-8.63305839,-7.01482900,-13.69051991
-1.96292866,-1.05779121,0.51903765

>  <COMPND>
    UNNAMED

>  <MASTER>
        0    0    0    0    0    0    0    0  109    0  109    0

>  <Name>
FB1.pdb

>  <RI>
0

>  <Rbt.Current_Directory>
/home/fc/tossine/FB1_39/p3/0_clust04

>  <Rbt.Executable>
rbdock/0.1.0

>  <Rbt.Library>
librxdock.so/0.1.0

>  <Rbt.Parameter_File>
/cluster/rxdock/data/scripts/dock.prm

>  <Rbt.Receptor>
rx_0.prm

>  <SCORE>
40.4802

>  <SCORE.INTER>
2.32289

>  <SCORE.INTER.CONST>
1

>  <SCORE.INTER.POLAR>
-1.71616

>  <SCORE.INTER.REPUL>
0.271509

>  <SCORE.INTER.ROT>
32

>  <SCORE.INTER.VDW>
-30.5997

>  <SCORE.INTER.norm>
0.0464578

>  <SCORE.INTRA>
38.1574

>  <SCORE.INTRA.DIHEDRAL>
62.0206

>  <SCORE.INTRA.DIHEDRAL.0>
47.3121

>  <SCORE.INTRA.POLAR>
1.47808

>  <SCORE.INTRA.POLAR.0>
-1.47808

>  <SCORE.INTRA.REPUL>
0

>  <SCORE.INTRA.REPUL.0>
0

>  <SCORE.INTRA.VDW>
2.1216

>  <SCORE.INTRA.VDW.0>
-2.78316

>  <SCORE.INTRA.norm>
0.763147

>  <SCORE.RESTR>
0

>  <SCORE.RESTR.CAVITY>
0

>  <SCORE.RESTR.norm>
0

>  <SCORE.SYSTEM>
0

>  <SCORE.SYSTEM.CONST>
0

>  <SCORE.SYSTEM.DIHEDRAL>
0

>  <SCORE.SYSTEM.norm>
0

>  <SCORE.heavy>
50

>  <SCORE.norm>
0.809605

$$$$
