FB1.pdb
  RxDock  10062019583D
librxdock.so/0.1.0
 59 58  0  0  0  0  0  0  0  0999 V2000
   -6.9522   -5.4445  -24.3290 C   0  0  0  0  0  0
   -7.4585   -4.2159  -23.5768 C   0  0  0  0  0  0
   -8.7932   -4.4937  -22.8658 C   0  0  0  0  0  0
   -8.6643   -4.5872  -21.3249 C   0  0  0  0  0  0
   -9.8852   -5.2515  -20.5979 C   0  0  0  0  0  0
  -10.7540   -5.9637  -21.6603 C   0  0  0  0  0  0
   -9.4651   -6.2551  -19.4429 C   0  0  0  0  0  0
  -10.5493   -6.5392  -18.2984 C   0  0  0  0  0  0
  -10.2165   -7.0429  -16.8274 C   0  0  0  0  0  0
  -11.5207   -7.5327  -15.9439 C   0  0  0  0  0  0
  -11.4139   -9.0396  -15.7160 C   0  0  0  0  0  0
  -11.7409   -6.7946  -14.5469 C   0  0  0  0  0  0
  -10.7851   -6.9913  -13.2560 C   0  0  0  0  0  0
  -11.3565   -7.2143  -11.8138 C   0  0  0  0  0  0
  -11.4082   -5.9670  -10.8184 C   0  0  0  0  0  0
  -11.0493   -4.4853  -11.2311 C   0  0  0  0  0  0
   -9.5618   -4.0776  -11.3999 C   0  0  0  0  0  0
   -8.7791   -3.7027  -10.0823 C   0  0  0  0  0  0
   -7.4076   -4.3634   -9.8955 C   0  0  0  0  0  0
   -7.2810   -5.8892  -10.1676 C   0  0  0  0  0  0
   -6.6480   -6.4069  -11.4930 C   0  0  0  0  0  0
   -7.0831   -7.7901  -11.9566 C   0  0  0  0  0  0
   -6.8058   -5.4148  -12.5733 N   0  0  0  0  0  0
   -6.4074   -6.3785   -9.1181 O   0  0  0  0  0  0
   -8.6061   -2.2817  -10.0605 O   0  0  0  0  0  0
  -10.0165   -8.1720  -13.5417 O   0  0  0  0  0  0
  -11.2650   -5.2902  -18.0977 O   0  0  0  0  0  0
  -10.5361   -4.2210  -17.6845 C   0  0  0  0  0  0
   -9.4425   -4.2578  -17.1533 O   0  0  0  0  0  0
  -11.2619   -2.9665  -18.0855 C   0  0  0  0  0  0
  -11.3902   -1.9632  -16.9281 C   0  0  0  0  0  0
  -12.1257   -0.6812  -17.3393 C   0  0  0  0  0  0
  -11.1664    0.3398  -17.9056 C   0  0  0  0  0  0
  -10.0842    0.6096  -17.3960 O   0  0  0  0  0  0
  -11.6111    0.9266  -19.0266 O   0  0  0  0  0  0
  -12.1748   -2.6884  -15.8261 C   0  0  0  0  0  0
  -11.6362   -3.3121  -14.9243 O   0  0  0  0  0  0
  -13.5065   -2.6234  -15.9612 O   0  0  0  0  0  0
   -8.9066   -7.5105  -20.0013 O   0  0  0  0  0  0
   -9.0917   -8.6864  -19.2934 C   0  0  0  0  0  0
   -9.9524   -9.5206  -19.5418 O   0  0  0  0  0  0
   -8.0874   -8.8399  -18.1436 C   0  0  0  0  0  0
   -7.1589  -10.0917  -18.2179 C   0  0  0  0  0  0
   -6.0796  -10.2572  -17.1324 C   0  0  0  0  0  0
   -6.4158   -9.5400  -15.8568 C   0  0  0  0  0  0
   -6.8546  -10.0601  -14.8402 O   0  0  0  0  0  0
   -6.1644   -8.2239  -15.9265 O   0  0  0  0  0  0
   -7.9001  -11.4299  -18.3273 C   0  0  0  0  0  0
   -7.4420  -12.3927  -18.9102 O   0  0  0  0  0  0
   -9.0583  -11.5086  -17.6390 O   0  0  0  0  0  0
   -6.3469   -5.7612  -13.4147 H   0  0  0  0  0  0
   -6.2880   -4.5704  -12.3196 H   0  0  0  0  0  0
   -6.4229   -7.3537   -9.2190 H   0  0  0  0  0  0
   -9.4587   -1.8751   -9.8191 H   0  0  0  0  0  0
   -9.1953   -7.8968  -13.9827 H   0  0  0  0  0  0
  -12.5035    0.6536  -19.3140 H   0  0  0  0  0  0
  -13.9514   -3.5009  -16.0653 H   0  0  0  0  0  0
   -6.5006   -7.8289  -15.0944 H   0  0  0  0  0  0
   -9.2746  -10.7224  -17.0902 H   0  0  0  0  0  0
  1  2  1  0  0  0
  2  3  1  0  0  0
  3  4  1  0  0  0
  4  5  1  0  0  0
  5  6  1  0  0  0
  5  7  1  0  0  0
  7  8  1  0  0  0
  7 39  1  0  0  0
  8  9  1  0  0  0
  8 27  1  0  0  0
  9 10  1  0  0  0
 10 11  1  0  0  0
 10 12  1  0  0  0
 12 13  1  0  0  0
 13 14  1  0  0  0
 13 26  1  0  0  0
 14 15  1  0  0  0
 15 16  1  0  0  0
 16 17  1  0  0  0
 17 18  1  0  0  0
 18 19  1  0  0  0
 18 25  1  0  0  0
 19 20  1  0  0  0
 20 21  1  0  0  0
 20 24  1  0  0  0
 21 22  1  0  0  0
 21 23  1  0  0  0
 23 51  1  0  0  0
 23 52  1  0  0  0
 24 53  1  0  0  0
 25 54  1  0  0  0
 26 55  1  0  0  0
 27 28  1  0  0  0
 28 29  2  0  0  0
 28 30  1  0  0  0
 30 31  1  0  0  0
 31 32  1  0  0  0
 31 36  1  0  0  0
 32 33  1  0  0  0
 33 34  2  0  0  0
 33 35  1  0  0  0
 35 56  1  0  0  0
 36 37  2  0  0  0
 36 38  1  0  0  0
 38 57  1  0  0  0
 39 40  1  0  0  0
 40 41  2  0  0  0
 40 42  1  0  0  0
 42 43  1  0  0  0
 43 44  1  0  0  0
 43 48  1  0  0  0
 44 45  1  0  0  0
 45 46  2  0  0  0
 45 47  1  0  0  0
 47 58  1  0  0  0
 48 49  2  0  0  0
 48 50  1  0  0  0
 50 59  1  0  0  0
M  END
>  <AUTHOR>
    GENERATED BY OPEN BABEL 2.4.1

>  <CHROM.1>
108.20535410,-163.75707276,14.11641933,156.96488494,-156.47572384,-148.84108510
-168.72279420,-61.17471066,112.63410867,-70.27451207,-134.48251740,-99.99762249
91.43930506,6.10623167,-76.26354913,-82.40110949,131.63517158,-45.94235162
75.63187748,102.33998921,-154.36997268,172.78985146,177.47744706,-19.53089540
131.16104439,179.76539909,-87.83484640,92.54364763,-44.91953478,2.44963660
119.03292588,99.37204715,-119.64347689,176.74163705,24.33554757,149.36326679
101.75318052,174.07692930,-4.02395214,-9.38825190,-5.92892428,-16.22439805
-1.65191944,-1.17993362,1.42026960

>  <COMPND>
    UNNAMED

>  <MASTER>
        0    0    0    0    0    0    0    0  109    0  109    0

>  <Name>
FB1.pdb

>  <RI>
0

>  <Rbt.Current_Directory>
/home/fc/tossine/FB1_39/p3/0_clust04

>  <Rbt.Executable>
rbdock/0.1.0

>  <Rbt.Library>
librxdock.so/0.1.0

>  <Rbt.Parameter_File>
/cluster/rxdock/data/scripts/dock.prm

>  <Rbt.Receptor>
rx_0.prm

>  <SCORE>
72.1082

>  <SCORE.INTER>
20.689

>  <SCORE.INTER.CONST>
1

>  <SCORE.INTER.POLAR>
-1.06488

>  <SCORE.INTER.REPUL>
0.145516

>  <SCORE.INTER.ROT>
32

>  <SCORE.INTER.VDW>
-13.8179

>  <SCORE.INTER.norm>
0.413781

>  <SCORE.INTRA>
47.743

>  <SCORE.INTRA.DIHEDRAL>
80.1724

>  <SCORE.INTRA.DIHEDRAL.0>
47.3121

>  <SCORE.INTRA.POLAR>
1.47808

>  <SCORE.INTRA.POLAR.0>
-1.47808

>  <SCORE.INTRA.REPUL>
0.0204721

>  <SCORE.INTRA.REPUL.0>
0

>  <SCORE.INTRA.VDW>
2.529

>  <SCORE.INTRA.VDW.0>
-2.78316

>  <SCORE.INTRA.norm>
0.954861

>  <SCORE.RESTR>
3.67609

>  <SCORE.RESTR.CAVITY>
3.67609

>  <SCORE.RESTR.norm>
0.0735218

>  <SCORE.SYSTEM>
0

>  <SCORE.SYSTEM.CONST>
0

>  <SCORE.SYSTEM.DIHEDRAL>
0

>  <SCORE.SYSTEM.norm>
0

>  <SCORE.heavy>
50

>  <SCORE.norm>
1.44216

$$$$
