FB1.pdb
  RxDock  10062021073D
librxdock.so/0.1.0
 59 58  0  0  0  0  0  0  0  0999 V2000
   -3.7333   -2.0257   -8.4043 C   0  0  0  0  0  0
   -4.7073   -3.1840   -8.6065 C   0  0  0  0  0  0
   -3.9845   -4.4636   -9.0586 C   0  0  0  0  0  0
   -4.9462   -5.6321   -9.3893 C   0  0  0  0  0  0
   -5.9447   -5.3540  -10.5666 C   0  0  0  0  0  0
   -6.4658   -6.7116  -11.0921 C   0  0  0  0  0  0
   -7.1483   -4.4014  -10.1645 C   0  0  0  0  0  0
   -8.0892   -3.8803  -11.3517 C   0  0  0  0  0  0
   -8.9856   -4.8067  -12.2826 C   0  0  0  0  0  0
   -9.9081   -5.9170  -11.4841 C   0  0  0  0  0  0
  -11.0687   -5.1880  -10.8092 C   0  0  0  0  0  0
  -10.4723   -7.1239  -12.3616 C   0  0  0  0  0  0
   -9.6090   -7.9151  -13.4784 C   0  0  0  0  0  0
   -8.0933   -7.6129  -13.7383 C   0  0  0  0  0  0
   -7.3949   -8.2810  -15.0092 C   0  0  0  0  0  0
   -7.8589   -8.0512  -16.5013 C   0  0  0  0  0  0
   -7.1257   -8.7895  -17.6523 C   0  0  0  0  0  0
   -7.9232   -9.9466  -18.3693 C   0  0  0  0  0  0
   -8.4771  -11.0529  -17.4627 C   0  0  0  0  0  0
   -7.6100  -11.5247  -16.2612 C   0  0  0  0  0  0
   -8.1569  -12.5827  -15.2578 C   0  0  0  0  0  0
   -9.5027  -12.2758  -14.6160 C   0  0  0  0  0  0
   -8.1551  -13.9291  -15.8609 N   0  0  0  0  0  0
   -6.4490  -12.1474  -16.8678 O   0  0  0  0  0  0
   -9.0141   -9.3547  -19.0830 O   0  0  0  0  0  0
   -9.6524   -9.2931  -13.0712 O   0  0  0  0  0  0
   -9.0343   -2.9572  -10.7458 O   0  0  0  0  0  0
   -9.6369   -2.0616  -11.5705 C   0  0  0  0  0  0
   -9.6516   -2.0997  -12.7861 O   0  0  0  0  0  0
  -10.3763   -1.0602  -10.7267 C   0  0  0  0  0  0
  -11.7475   -1.5770  -10.2629 C   0  0  0  0  0  0
  -12.1906   -0.9572   -8.9314 C   0  0  0  0  0  0
  -11.3785   -1.5020   -7.7795 C   0  0  0  0  0  0
  -10.4888   -2.3356   -7.9112 O   0  0  0  0  0  0
  -11.7225   -0.9842   -6.5910 O   0  0  0  0  0  0
  -12.7381   -1.2000  -11.3732 C   0  0  0  0  0  0
  -12.4925   -0.3654  -12.2308 O   0  0  0  0  0  0
  -13.9196   -1.8278  -11.2968 O   0  0  0  0  0  0
   -7.9344   -4.9751   -9.0453 O   0  0  0  0  0  0
   -7.4673   -4.7990   -7.7535 C   0  0  0  0  0  0
   -6.4185   -5.2609   -7.3232 O   0  0  0  0  0  0
   -8.4172   -3.9483   -6.9001 C   0  0  0  0  0  0
   -7.8356   -3.4355   -5.5461 C   0  0  0  0  0  0
   -6.6639   -2.4379   -5.5937 C   0  0  0  0  0  0
   -6.9330   -1.2590   -6.4837 C   0  0  0  0  0  0
   -7.1115   -0.1081   -6.1092 O   0  0  0  0  0  0
   -6.9426   -1.5894   -7.7842 O   0  0  0  0  0  0
   -8.8797   -2.8620   -4.5800 C   0  0  0  0  0  0
   -9.9050   -2.3290   -4.9562 O   0  0  0  0  0  0
   -8.6397   -3.0818   -3.2703 O   0  0  0  0  0  0
   -7.1940  -14.2072  -16.0544 H   0  0  0  0  0  0
   -8.6040  -13.8767  -16.7781 H   0  0  0  0  0  0
   -5.7471  -12.0767  -16.1868 H   0  0  0  0  0  0
   -9.6559   -9.0165  -18.4317 H   0  0  0  0  0  0
   -9.2819   -9.3535  -12.1747 H   0  0  0  0  0  0
  -11.1361   -1.2221   -5.8474 H   0  0  0  0  0  0
  -13.9559   -2.5532  -10.6250 H   0  0  0  0  0  0
   -7.3094   -0.8191   -8.2674 H   0  0  0  0  0  0
   -7.8197   -3.5867   -3.0729 H   0  0  0  0  0  0
  1  2  1  0  0  0
  2  3  1  0  0  0
  3  4  1  0  0  0
  4  5  1  0  0  0
  5  6  1  0  0  0
  5  7  1  0  0  0
  7  8  1  0  0  0
  7 39  1  0  0  0
  8  9  1  0  0  0
  8 27  1  0  0  0
  9 10  1  0  0  0
 10 11  1  0  0  0
 10 12  1  0  0  0
 12 13  1  0  0  0
 13 14  1  0  0  0
 13 26  1  0  0  0
 14 15  1  0  0  0
 15 16  1  0  0  0
 16 17  1  0  0  0
 17 18  1  0  0  0
 18 19  1  0  0  0
 18 25  1  0  0  0
 19 20  1  0  0  0
 20 21  1  0  0  0
 20 24  1  0  0  0
 21 22  1  0  0  0
 21 23  1  0  0  0
 23 51  1  0  0  0
 23 52  1  0  0  0
 24 53  1  0  0  0
 25 54  1  0  0  0
 26 55  1  0  0  0
 27 28  1  0  0  0
 28 29  2  0  0  0
 28 30  1  0  0  0
 30 31  1  0  0  0
 31 32  1  0  0  0
 31 36  1  0  0  0
 32 33  1  0  0  0
 33 34  2  0  0  0
 33 35  1  0  0  0
 35 56  1  0  0  0
 36 37  2  0  0  0
 36 38  1  0  0  0
 38 57  1  0  0  0
 39 40  1  0  0  0
 40 41  2  0  0  0
 40 42  1  0  0  0
 42 43  1  0  0  0
 43 44  1  0  0  0
 43 48  1  0  0  0
 44 45  1  0  0  0
 45 46  2  0  0  0
 45 47  1  0  0  0
 47 58  1  0  0  0
 48 49  2  0  0  0
 48 50  1  0  0  0
 50 59  1  0  0  0
M  END
>  <AUTHOR>
    GENERATED BY OPEN BABEL 2.4.1

>  <CHROM.1>
-175.20996411,61.70097864,160.53978054,170.83599207,62.97600761,81.94734542
48.25331611,158.87695194,73.56251948,42.20418969,3.74425025,-170.52586960
-58.33622917,59.78235529,-178.21541460,108.79751733,-54.64542589,-38.17321418
-69.16019870,176.30026144,-53.88782966,155.24260797,64.14957033,13.93757358
-81.41732948,151.69514696,-71.96880576,-16.86909942,-0.29679040,-171.86174561
-9.04518545,-64.30451540,-167.01254001,65.24020707,51.42520212,-29.45085153
110.44363052,168.16034637,0.02430752,-8.59618714,-5.14219206,-10.92668111
-1.64227427,0.60226014,-2.28418876

>  <COMPND>
    UNNAMED

>  <MASTER>
        0    0    0    0    0    0    0    0  109    0  109    0

>  <Name>
FB1.pdb

>  <RI>
0

>  <Rbt.Current_Directory>
/home/fc/tossine/FB1_39/p3/0_clust04

>  <Rbt.Executable>
rbdock/0.1.0

>  <Rbt.Library>
librxdock.so/0.1.0

>  <Rbt.Parameter_File>
/cluster/rxdock/data/scripts/dock.prm

>  <Rbt.Receptor>
rx_1.prm

>  <SCORE>
0.284589

>  <SCORE.INTER>
-5.04437

>  <SCORE.INTER.CONST>
1

>  <SCORE.INTER.POLAR>
-3.23703

>  <SCORE.INTER.REPUL>
0.312059

>  <SCORE.INTER.ROT>
32

>  <SCORE.INTER.VDW>
-32.9988

>  <SCORE.INTER.norm>
-0.100887

>  <SCORE.INTRA>
5.32896

>  <SCORE.INTRA.DIHEDRAL>
13.391

>  <SCORE.INTRA.DIHEDRAL.0>
47.3121

>  <SCORE.INTRA.POLAR>
0.478077

>  <SCORE.INTRA.POLAR.0>
-1.47808

>  <SCORE.INTRA.REPUL>
0.14197

>  <SCORE.INTRA.REPUL.0>
0

>  <SCORE.INTRA.VDW>
-3.70186

>  <SCORE.INTRA.VDW.0>
-2.78316

>  <SCORE.INTRA.norm>
0.106579

>  <SCORE.RESTR>
0

>  <SCORE.RESTR.CAVITY>
0

>  <SCORE.RESTR.norm>
0

>  <SCORE.SYSTEM>
0

>  <SCORE.SYSTEM.CONST>
0

>  <SCORE.SYSTEM.DIHEDRAL>
0

>  <SCORE.SYSTEM.norm>
0

>  <SCORE.heavy>
50

>  <SCORE.norm>
0.00569178

$$$$
