FB1.pdb
  RxDock  10062022573D
librxdock.so/0.1.0
 59 58  0  0  0  0  0  0  0  0999 V2000
   -6.4316   -0.9533   -9.3158 C   0  0  0  0  0  0
   -5.6133   -1.4683   -8.1340 C   0  0  0  0  0  0
   -5.6555   -0.4944   -6.9448 C   0  0  0  0  0  0
   -5.3624   -1.1705   -5.5822 C   0  0  0  0  0  0
   -6.3980   -2.2671   -5.1514 C   0  0  0  0  0  0
   -7.7795   -1.8844   -5.7307 C   0  0  0  0  0  0
   -5.9853   -3.7350   -5.5904 C   0  0  0  0  0  0
   -5.1435   -3.8775   -6.9458 C   0  0  0  0  0  0
   -3.5751   -4.1265   -7.0270 C   0  0  0  0  0  0
   -2.6401   -2.7985   -6.7382 C   0  0  0  0  0  0
   -2.1441   -2.8590   -5.2945 C   0  0  0  0  0  0
   -1.4018   -2.5833   -7.7206 C   0  0  0  0  0  0
   -0.1533   -1.6031   -7.4060 C   0  0  0  0  0  0
    1.2756   -2.1467   -7.0614 C   0  0  0  0  0  0
    1.8925   -3.2938   -7.9849 C   0  0  0  0  0  0
    2.9637   -3.0423   -9.1180 C   0  0  0  0  0  0
    3.6162   -4.2534   -9.8356 C   0  0  0  0  0  0
    5.0141   -4.7320   -9.2825 C   0  0  0  0  0  0
    6.0820   -3.6457   -9.1036 C   0  0  0  0  0  0
    6.8861   -3.1891  -10.3539 C   0  0  0  0  0  0
    7.6876   -1.8540  -10.3352 C   0  0  0  0  0  0
    6.9204   -0.6091   -9.9122 C   0  0  0  0  0  0
    8.9306   -1.9982   -9.5538 N   0  0  0  0  0  0
    7.8842   -4.2236  -10.5469 O   0  0  0  0  0  0
    4.7949   -5.3669   -8.0181 O   0  0  0  0  0  0
    0.0191   -0.8280   -8.6044 O   0  0  0  0  0  0
   -5.7234   -4.9971   -7.6687 O   0  0  0  0  0  0
   -7.0411   -4.9098   -7.9870 C   0  0  0  0  0  0
   -7.8467   -4.1338   -7.5093 O   0  0  0  0  0  0
   -7.3242   -5.8693   -9.1098 C   0  0  0  0  0  0
   -7.7123   -5.1542  -10.4138 C   0  0  0  0  0  0
   -8.6982   -4.0019  -10.1822 C   0  0  0  0  0  0
  -10.0340   -4.5163   -9.6982 C   0  0  0  0  0  0
  -10.7884   -5.1962  -10.3854 O   0  0  0  0  0  0
  -10.3191   -4.1590   -8.4372 O   0  0  0  0  0  0
   -6.4026   -4.6142  -11.0046 C   0  0  0  0  0  0
   -6.2175   -4.4806  -12.2048 O   0  0  0  0  0  0
   -5.4551   -4.3457  -10.0957 O   0  0  0  0  0  0
   -5.3573   -4.4730   -4.4676 O   0  0  0  0  0  0
   -6.1442   -4.8117   -3.3794 C   0  0  0  0  0  0
   -7.1900   -5.4442   -3.4463 O   0  0  0  0  0  0
   -5.5591   -4.3035   -2.0551 C   0  0  0  0  0  0
   -5.8836   -2.8202   -1.6962 C   0  0  0  0  0  0
   -7.2343   -2.5180   -1.0219 C   0  0  0  0  0  0
   -8.4080   -3.0370   -1.8013 C   0  0  0  0  0  0
   -8.8319   -4.1842   -1.7737 O   0  0  0  0  0  0
   -8.9882   -2.0861   -2.5493 O   0  0  0  0  0  0
   -4.7991   -2.1107   -0.8758 C   0  0  0  0  0  0
   -4.1158   -1.2108   -1.3229 O   0  0  0  0  0  0
   -4.7202   -2.4777    0.4205 O   0  0  0  0  0  0
    9.3050   -1.0730   -9.3478 H   0  0  0  0  0  0
    9.6375   -2.4431  -10.1436 H   0  0  0  0  0  0
    8.2161   -4.0792  -11.4582 H   0  0  0  0  0  0
    4.1563   -6.0919   -8.1484 H   0  0  0  0  0  0
    0.4695   -1.3854   -9.2609 H   0  0  0  0  0  0
   -9.5533   -3.8778   -7.9006 H   0  0  0  0  0  0
   -4.6533   -3.8949  -10.4601 H   0  0  0  0  0  0
   -8.2745   -1.4764   -2.8324 H   0  0  0  0  0  0
   -4.0113   -2.0366    0.9391 H   0  0  0  0  0  0
  1  2  1  0  0  0
  2  3  1  0  0  0
  3  4  1  0  0  0
  4  5  1  0  0  0
  5  6  1  0  0  0
  5  7  1  0  0  0
  7  8  1  0  0  0
  7 39  1  0  0  0
  8  9  1  0  0  0
  8 27  1  0  0  0
  9 10  1  0  0  0
 10 11  1  0  0  0
 10 12  1  0  0  0
 12 13  1  0  0  0
 13 14  1  0  0  0
 13 26  1  0  0  0
 14 15  1  0  0  0
 15 16  1  0  0  0
 16 17  1  0  0  0
 17 18  1  0  0  0
 18 19  1  0  0  0
 18 25  1  0  0  0
 19 20  1  0  0  0
 20 21  1  0  0  0
 20 24  1  0  0  0
 21 22  1  0  0  0
 21 23  1  0  0  0
 23 51  1  0  0  0
 23 52  1  0  0  0
 24 53  1  0  0  0
 25 54  1  0  0  0
 26 55  1  0  0  0
 27 28  1  0  0  0
 28 29  2  0  0  0
 28 30  1  0  0  0
 30 31  1  0  0  0
 31 32  1  0  0  0
 31 36  1  0  0  0
 32 33  1  0  0  0
 33 34  2  0  0  0
 33 35  1  0  0  0
 35 56  1  0  0  0
 36 37  2  0  0  0
 36 38  1  0  0  0
 38 57  1  0  0  0
 39 40  1  0  0  0
 40 41  2  0  0  0
 40 42  1  0  0  0
 42 43  1  0  0  0
 43 44  1  0  0  0
 43 48  1  0  0  0
 44 45  1  0  0  0
 45 46  2  0  0  0
 45 47  1  0  0  0
 47 58  1  0  0  0
 48 49  2  0  0  0
 48 50  1  0  0  0
 50 59  1  0  0  0
M  END
>  <AUTHOR>
    GENERATED BY OPEN BABEL 2.4.1

>  <CHROM.1>
156.59077533,-62.77771190,-30.84591077,-31.36836003,102.25815725,67.73988662
-77.06317554,58.71501742,99.62420333,-163.29535002,108.76977858,47.31887568
-77.38541670,100.97176969,172.69706637,-95.95393768,-50.31584098,-81.04482042
56.56992813,163.21613678,-52.45356091,164.39578899,-165.08653721,-15.84492814
-113.70237373,-43.50965880,-66.35867059,149.76675682,-66.87027135,-18.80235771
-172.84975324,54.81754646,83.19503029,83.10123292,-54.75016946,111.23686351
82.46248466,32.81193188,178.67647900,-3.27396308,-3.29478939,-6.92422773
2.86646583,0.09700806,1.39307019

>  <COMPND>
    UNNAMED

>  <MASTER>
        0    0    0    0    0    0    0    0  109    0  109    0

>  <Name>
FB1.pdb

>  <RI>
0

>  <Rbt.Current_Directory>
/home/fc/tossine/FB1_39/p3/0_clust04

>  <Rbt.Executable>
rbdock/0.1.0

>  <Rbt.Library>
librxdock.so/0.1.0

>  <Rbt.Parameter_File>
/cluster/rxdock/data/scripts/dock.prm

>  <Rbt.Receptor>
rx_4.prm

>  <SCORE>
72.2944

>  <SCORE.INTER>
34.1998

>  <SCORE.INTER.CONST>
1

>  <SCORE.INTER.POLAR>
-2.75345

>  <SCORE.INTER.REPUL>
0.472569

>  <SCORE.INTER.ROT>
32

>  <SCORE.INTER.VDW>
3.79873

>  <SCORE.INTER.norm>
0.683997

>  <SCORE.INTRA>
24.8677

>  <SCORE.INTRA.DIHEDRAL>
37.9744

>  <SCORE.INTRA.DIHEDRAL.0>
47.3121

>  <SCORE.INTRA.POLAR>
0.543191

>  <SCORE.INTRA.POLAR.0>
-1.47808

>  <SCORE.INTRA.REPUL>
0

>  <SCORE.INTRA.REPUL.0>
0

>  <SCORE.INTRA.VDW>
4.03368

>  <SCORE.INTRA.VDW.0>
-2.78316

>  <SCORE.INTRA.norm>
0.497354

>  <SCORE.RESTR>
13.2268

>  <SCORE.RESTR.CAVITY>
13.2268

>  <SCORE.RESTR.norm>
0.264536

>  <SCORE.SYSTEM>
0

>  <SCORE.SYSTEM.CONST>
0

>  <SCORE.SYSTEM.DIHEDRAL>
0

>  <SCORE.SYSTEM.norm>
0

>  <SCORE.heavy>
50

>  <SCORE.norm>
1.44589

$$$$
