FB1.pdb
  RxDock  10062021483D
librxdock.so/0.1.0
 59 58  0  0  0  0  0  0  0  0999 V2000
   -9.1149   -6.1608   -9.2225 C   0  0  0  0  0  0
   -9.6329   -4.7318   -9.0781 C   0  0  0  0  0  0
  -11.0093   -4.5555   -9.7406 C   0  0  0  0  0  0
  -11.5510   -5.8517  -10.3934 C   0  0  0  0  0  0
  -10.6093   -6.4930  -11.4715 C   0  0  0  0  0  0
  -11.4073   -7.5793  -12.2288 C   0  0  0  0  0  0
   -9.9904   -5.4364  -12.4807 C   0  0  0  0  0  0
   -9.2183   -4.1873  -11.8406 C   0  0  0  0  0  0
   -7.6457   -4.0970  -11.6238 C   0  0  0  0  0  0
   -6.8619   -5.5478  -11.5748 C   0  0  0  0  0  0
   -6.4848   -5.9438  -13.0013 C   0  0  0  0  0  0
   -5.5705   -5.6181  -10.6410 C   0  0  0  0  0  0
   -5.6221   -5.7147   -9.0265 C   0  0  0  0  0  0
   -4.3776   -6.1308   -8.1695 C   0  0  0  0  0  0
   -4.4224   -5.8735   -6.5944 C   0  0  0  0  0  0
   -4.4024   -4.4422   -5.9269 C   0  0  0  0  0  0
   -3.4574   -4.1716   -4.7264 C   0  0  0  0  0  0
   -4.0170   -3.2378   -3.5845 C   0  0  0  0  0  0
   -5.1007   -3.8420   -2.6829 C   0  0  0  0  0  0
   -5.8614   -2.8972   -1.7097 C   0  0  0  0  0  0
   -5.0790   -1.9853   -0.7189 C   0  0  0  0  0  0
   -4.5240   -2.6593    0.5281 C   0  0  0  0  0  0
   -4.0262   -1.2275   -1.4217 N   0  0  0  0  0  0
   -6.5814   -1.9815   -2.5740 O   0  0  0  0  0  0
   -2.9152   -2.8349   -2.7638 O   0  0  0  0  0  0
   -5.9530   -4.3865   -8.5871 O   0  0  0  0  0  0
   -9.5322   -3.0424  -12.6791 O   0  0  0  0  0  0
   -9.0145   -1.8435  -12.3051 C   0  0  0  0  0  0
   -8.2401   -1.1618  -12.9493 O   0  0  0  0  0  0
   -9.6383   -1.4430  -10.9967 C   0  0  0  0  0  0
  -11.1671   -1.6020  -10.9984 C   0  0  0  0  0  0
  -11.8023   -1.1996   -9.6613 C   0  0  0  0  0  0
  -13.3098   -1.2799   -9.7278 C   0  0  0  0  0  0
  -13.9202   -1.8305  -10.6377 O   0  0  0  0  0  0
  -13.9226   -0.6901   -8.6908 O   0  0  0  0  0  0
  -11.6846   -0.6919  -12.1208 C   0  0  0  0  0  0
  -11.9890    0.4780  -11.9439 O   0  0  0  0  0  0
  -11.8233   -1.3005  -13.3067 O   0  0  0  0  0  0
   -9.1855   -6.1067  -13.5308 O   0  0  0  0  0  0
   -9.8040   -6.4369  -14.7251 C   0  0  0  0  0  0
  -10.9933   -6.2708  -14.9626 O   0  0  0  0  0  0
   -8.8267   -7.0436  -15.7405 C   0  0  0  0  0  0
   -8.0416   -8.3022  -15.2565 C   0  0  0  0  0  0
   -8.7401   -9.6710  -15.3509 C   0  0  0  0  0  0
   -8.5970  -10.4900  -14.1006 C   0  0  0  0  0  0
   -8.4355  -11.7018  -14.0561 O   0  0  0  0  0  0
   -8.6455   -9.7412  -12.9883 O   0  0  0  0  0  0
   -6.6476   -8.4614  -15.8759 C   0  0  0  0  0  0
   -6.3105   -7.8961  -16.8975 O   0  0  0  0  0  0
   -5.7724   -9.1914  -15.1532 O   0  0  0  0  0  0
   -3.1147   -1.5994   -1.1583 H   0  0  0  0  0  0
   -4.0287   -0.2659   -1.0743 H   0  0  0  0  0  0
   -7.0990   -1.4186   -1.9604 H   0  0  0  0  0  0
   -2.5832   -3.6213   -2.2928 H   0  0  0  0  0  0
   -6.3982   -4.4568   -7.7261 H   0  0  0  0  0  0
  -13.3337   -0.2121   -8.0758 H   0  0  0  0  0  0
  -11.2526   -2.0996  -13.4267 H   0  0  0  0  0  0
   -8.3919  -10.3267  -12.2438 H   0  0  0  0  0  0
   -5.0688   -9.6390  -15.6737 H   0  0  0  0  0  0
  1  2  1  0  0  0
  2  3  1  0  0  0
  3  4  1  0  0  0
  4  5  1  0  0  0
  5  6  1  0  0  0
  5  7  1  0  0  0
  7  8  1  0  0  0
  7 39  1  0  0  0
  8  9  1  0  0  0
  8 27  1  0  0  0
  9 10  1  0  0  0
 10 11  1  0  0  0
 10 12  1  0  0  0
 12 13  1  0  0  0
 13 14  1  0  0  0
 13 26  1  0  0  0
 14 15  1  0  0  0
 15 16  1  0  0  0
 16 17  1  0  0  0
 17 18  1  0  0  0
 18 19  1  0  0  0
 18 25  1  0  0  0
 19 20  1  0  0  0
 20 21  1  0  0  0
 20 24  1  0  0  0
 21 22  1  0  0  0
 21 23  1  0  0  0
 23 51  1  0  0  0
 23 52  1  0  0  0
 24 53  1  0  0  0
 25 54  1  0  0  0
 26 55  1  0  0  0
 27 28  1  0  0  0
 28 29  2  0  0  0
 28 30  1  0  0  0
 30 31  1  0  0  0
 31 32  1  0  0  0
 31 36  1  0  0  0
 32 33  1  0  0  0
 33 34  2  0  0  0
 33 35  1  0  0  0
 35 56  1  0  0  0
 36 37  2  0  0  0
 36 38  1  0  0  0
 38 57  1  0  0  0
 39 40  1  0  0  0
 40 41  2  0  0  0
 40 42  1  0  0  0
 42 43  1  0  0  0
 43 44  1  0  0  0
 43 48  1  0  0  0
 44 45  1  0  0  0
 45 46  2  0  0  0
 45 47  1  0  0  0
 47 58  1  0  0  0
 48 49  2  0  0  0
 48 50  1  0  0  0
 50 59  1  0  0  0
M  END
>  <AUTHOR>
    GENERATED BY OPEN BABEL 2.4.1

>  <CHROM.1>
0.08829063,-56.72076175,-168.11026080,53.62095720,95.99165273,93.05722079
-21.55593858,178.07364260,87.83199881,75.96622252,164.64714392,166.05567470
153.62214913,-68.53465993,-133.70552911,-142.49330872,72.40988599,-169.44929222
-67.57136449,-53.35545642,-77.95989599,176.96999301,-108.72261210,118.33359423
-47.45220727,179.73128968,176.20897758,-89.89546258,12.70113175,5.72551847
-24.24942892,-3.48529479,56.06309790,82.71757125,-133.82664292,-18.90762619
-142.17808733,-170.46599134,153.10939787,-8.22046512,-4.67504013,-10.09232682
-2.01097790,-0.68239643,0.93543521

>  <COMPND>
    UNNAMED

>  <MASTER>
        0    0    0    0    0    0    0    0  109    0  109    0

>  <Name>
FB1.pdb

>  <RI>
0

>  <Rbt.Current_Directory>
/home/fc/tossine/FB1_39/p3/0_clust04

>  <Rbt.Executable>
rbdock/0.1.0

>  <Rbt.Library>
librxdock.so/0.1.0

>  <Rbt.Parameter_File>
/cluster/rxdock/data/scripts/dock.prm

>  <Rbt.Receptor>
rx_2.prm

>  <SCORE>
77.9773

>  <SCORE.INTER>
39.7217

>  <SCORE.INTER.CONST>
1

>  <SCORE.INTER.POLAR>
-2.80024

>  <SCORE.INTER.REPUL>
1.85954

>  <SCORE.INTER.ROT>
32

>  <SCORE.INTER.VDW>
2.54488

>  <SCORE.INTER.norm>
0.794435

>  <SCORE.INTRA>
35.3975

>  <SCORE.INTRA.DIHEDRAL>
39.212

>  <SCORE.INTRA.DIHEDRAL.0>
47.3121

>  <SCORE.INTRA.POLAR>
0.630043

>  <SCORE.INTRA.POLAR.0>
-1.47808

>  <SCORE.INTRA.REPUL>
0

>  <SCORE.INTRA.REPUL.0>
0

>  <SCORE.INTRA.VDW>
13.6493

>  <SCORE.INTRA.VDW.0>
-2.78316

>  <SCORE.INTRA.norm>
0.707949

>  <SCORE.RESTR>
2.85813

>  <SCORE.RESTR.CAVITY>
2.85813

>  <SCORE.RESTR.norm>
0.0571625

>  <SCORE.SYSTEM>
0

>  <SCORE.SYSTEM.CONST>
0

>  <SCORE.SYSTEM.DIHEDRAL>
0

>  <SCORE.SYSTEM.norm>
0

>  <SCORE.heavy>
50

>  <SCORE.norm>
1.55955

$$$$
