FB1.pdb
  RxDock  10062022593D
librxdock.so/0.1.0
 59 58  0  0  0  0  0  0  0  0999 V2000
   -7.6532   -6.0059  -13.5243 C   0  0  0  0  0  0
   -7.2883   -5.3815  -12.1795 C   0  0  0  0  0  0
   -5.8573   -4.8189  -12.1826 C   0  0  0  0  0  0
   -4.7975   -5.8239  -11.6661 C   0  0  0  0  0  0
   -3.9034   -5.2964  -10.4902 C   0  0  0  0  0  0
   -2.9251   -4.2428  -11.0589 C   0  0  0  0  0  0
   -4.7373   -4.7009   -9.2786 C   0  0  0  0  0  0
   -5.5340   -5.7462   -8.3627 C   0  0  0  0  0  0
   -5.4030   -5.8636   -6.7824 C   0  0  0  0  0  0
   -6.4128   -4.8832   -5.9220 C   0  0  0  0  0  0
   -7.8397   -5.4093   -6.0672 C   0  0  0  0  0  0
   -6.0653   -4.6989   -4.3760 C   0  0  0  0  0  0
   -7.0852   -5.0467   -3.1688 C   0  0  0  0  0  0
   -8.4597   -4.3145   -2.9930 C   0  0  0  0  0  0
   -8.9940   -4.0522   -1.5115 C   0  0  0  0  0  0
   -8.3375   -3.0352   -0.4970 C   0  0  0  0  0  0
   -9.1863   -1.8681    0.0727 C   0  0  0  0  0  0
   -8.4416   -0.8523    1.0228 C   0  0  0  0  0  0
   -7.8991   -1.4250    2.3381 C   0  0  0  0  0  0
   -7.5534   -0.4350    3.4865 C   0  0  0  0  0  0
   -6.8496    0.9197    3.1784 C   0  0  0  0  0  0
   -7.6328    2.1815    3.5124 C   0  0  0  0  0  0
   -5.5027    0.9606    3.7789 N   0  0  0  0  0  0
   -8.8365   -0.0704    4.0562 O   0  0  0  0  0  0
   -7.3512   -0.2815    0.2913 O   0  0  0  0  0  0
   -7.4194   -6.4324   -3.3549 O   0  0  0  0  0  0
   -6.9467   -5.4901   -8.5885 O   0  0  0  0  0  0
   -7.5321   -6.1368   -9.6298 C   0  0  0  0  0  0
   -7.3767   -7.3052   -9.9300 O   0  0  0  0  0  0
   -8.4916   -5.1915  -10.2985 C   0  0  0  0  0  0
   -8.0124   -3.7319  -10.2503 C   0  0  0  0  0  0
   -8.7500   -2.8367  -11.2543 C   0  0  0  0  0  0
   -9.0296   -1.4732  -10.6660 C   0  0  0  0  0  0
   -8.1640   -0.6255  -10.4772 O   0  0  0  0  0  0
  -10.3223   -1.2743  -10.3691 O   0  0  0  0  0  0
   -8.2802   -3.2471   -8.8187 C   0  0  0  0  0  0
   -8.8572   -3.9249   -7.9820 O   0  0  0  0  0  0
   -7.8717   -1.9946   -8.5735 O   0  0  0  0  0  0
   -3.9147   -3.7691   -8.4692 O   0  0  0  0  0  0
   -4.4473   -2.5330   -8.1432 C   0  0  0  0  0  0
   -5.2879   -1.9400   -8.8067 O   0  0  0  0  0  0
   -3.8651   -1.9719   -6.8392 C   0  0  0  0  0  0
   -4.9003   -1.3705   -5.8387 C   0  0  0  0  0  0
   -6.2456   -2.0988   -5.6648 C   0  0  0  0  0  0
   -7.4287   -1.1822   -5.7849 C   0  0  0  0  0  0
   -7.3794    0.0257   -5.9724 O   0  0  0  0  0  0
   -8.5963   -1.8353   -5.6825 O   0  0  0  0  0  0
   -4.3468   -1.1000   -4.4341 C   0  0  0  0  0  0
   -4.7507   -0.1975   -3.7278 O   0  0  0  0  0  0
   -3.4483   -1.9999   -3.9823 O   0  0  0  0  0  0
   -4.8431    0.5027    3.1514 H   0  0  0  0  0  0
   -5.5044    0.3856    4.6244 H   0  0  0  0  0  0
   -8.6614    0.0271    5.0160 H   0  0  0  0  0  0
   -6.8336   -1.0090   -0.1002 H   0  0  0  0  0  0
   -7.6475   -6.8059   -2.4872 H   0  0  0  0  0  0
  -10.9462   -1.9008  -10.7836 H   0  0  0  0  0  0
   -8.4634   -1.4811   -7.9694 H   0  0  0  0  0  0
   -8.5998   -2.5174   -6.3868 H   0  0  0  0  0  0
   -3.5094   -2.2091   -3.0238 H   0  0  0  0  0  0
  1  2  1  0  0  0
  2  3  1  0  0  0
  3  4  1  0  0  0
  4  5  1  0  0  0
  5  6  1  0  0  0
  5  7  1  0  0  0
  7  8  1  0  0  0
  7 39  1  0  0  0
  8  9  1  0  0  0
  8 27  1  0  0  0
  9 10  1  0  0  0
 10 11  1  0  0  0
 10 12  1  0  0  0
 12 13  1  0  0  0
 13 14  1  0  0  0
 13 26  1  0  0  0
 14 15  1  0  0  0
 15 16  1  0  0  0
 16 17  1  0  0  0
 17 18  1  0  0  0
 18 19  1  0  0  0
 18 25  1  0  0  0
 19 20  1  0  0  0
 20 21  1  0  0  0
 20 24  1  0  0  0
 21 22  1  0  0  0
 21 23  1  0  0  0
 23 51  1  0  0  0
 23 52  1  0  0  0
 24 53  1  0  0  0
 25 54  1  0  0  0
 26 55  1  0  0  0
 27 28  1  0  0  0
 28 29  2  0  0  0
 28 30  1  0  0  0
 30 31  1  0  0  0
 31 32  1  0  0  0
 31 36  1  0  0  0
 32 33  1  0  0  0
 33 34  2  0  0  0
 33 35  1  0  0  0
 35 56  1  0  0  0
 36 37  2  0  0  0
 36 38  1  0  0  0
 38 57  1  0  0  0
 39 40  1  0  0  0
 40 41  2  0  0  0
 40 42  1  0  0  0
 42 43  1  0  0  0
 43 44  1  0  0  0
 43 48  1  0  0  0
 44 45  1  0  0  0
 45 46  2  0  0  0
 45 47  1  0  0  0
 47 58  1  0  0  0
 48 49  2  0  0  0
 48 50  1  0  0  0
 50 59  1  0  0  0
M  END
>  <AUTHOR>
    GENERATED BY OPEN BABEL 2.4.1

>  <CHROM.1>
-92.97775482,-125.58588312,-72.12131613,71.82075779,125.86206171,131.64507128
87.74250181,87.30497402,70.93255104,-122.56628901,-61.91181661,-145.65787828
152.76283989,69.18567456,120.96496479,-177.01239874,-63.51567652,-161.71002694
-51.06010278,-40.62251305,116.92309162,144.48552628,83.93999952,43.19528814
33.28596807,163.43263589,141.38835719,-4.86672585,72.29777463,-16.37573180
143.54029828,-27.25293994,-134.60276588,39.62441651,-130.09119831,148.88278054
-1.47291128,-57.60248148,-142.70748155,-6.86472791,-2.96542751,-5.78849781
1.48765088,-0.75565576,-1.93964456

>  <COMPND>
    UNNAMED

>  <MASTER>
        0    0    0    0    0    0    0    0  109    0  109    0

>  <Name>
FB1.pdb

>  <RI>
0

>  <Rbt.Current_Directory>
/home/fc/tossine/FB1_39/p3/0_clust04

>  <Rbt.Executable>
rbdock/0.1.0

>  <Rbt.Library>
librxdock.so/0.1.0

>  <Rbt.Parameter_File>
/cluster/rxdock/data/scripts/dock.prm

>  <Rbt.Receptor>
rx_4.prm

>  <SCORE>
251.467

>  <SCORE.INTER>
163.315

>  <SCORE.INTER.CONST>
1

>  <SCORE.INTER.POLAR>
-0.388195

>  <SCORE.INTER.REPUL>
1.7422

>  <SCORE.INTER.ROT>
32

>  <SCORE.INTER.VDW>
118.524

>  <SCORE.INTER.norm>
3.2663

>  <SCORE.INTRA>
79.302

>  <SCORE.INTRA.DIHEDRAL>
84.7141

>  <SCORE.INTRA.DIHEDRAL.0>
47.3121

>  <SCORE.INTRA.POLAR>
1.47808

>  <SCORE.INTRA.POLAR.0>
-1.47808

>  <SCORE.INTRA.REPUL>
0.22884

>  <SCORE.INTRA.REPUL.0>
0

>  <SCORE.INTRA.VDW>
30.7753

>  <SCORE.INTRA.VDW.0>
-2.78316

>  <SCORE.INTRA.norm>
1.58604

>  <SCORE.RESTR>
8.85065

>  <SCORE.RESTR.CAVITY>
8.85065

>  <SCORE.RESTR.norm>
0.177013

>  <SCORE.SYSTEM>
0

>  <SCORE.SYSTEM.CONST>
0

>  <SCORE.SYSTEM.DIHEDRAL>
0

>  <SCORE.SYSTEM.norm>
0

>  <SCORE.heavy>
50

>  <SCORE.norm>
5.02935

$$$$
