FB1.pdb
  RxDock  10062022563D
librxdock.so/0.1.0
 59 58  0  0  0  0  0  0  0  0999 V2000
   -2.8050   -2.5290   -1.5464 C   0  0  0  0  0  0
   -3.9316   -2.4038   -0.5235 C   0  0  0  0  0  0
   -5.0873   -1.5385   -1.0524 C   0  0  0  0  0  0
   -6.0051   -2.2803   -2.0559 C   0  0  0  0  0  0
   -5.2667   -2.9050   -3.2907 C   0  0  0  0  0  0
   -5.3792   -4.4442   -3.1961 C   0  0  0  0  0  0
   -5.8113   -2.3810   -4.6859 C   0  0  0  0  0  0
   -5.1299   -2.9847   -6.0040 C   0  0  0  0  0  0
   -5.8870   -3.8214   -7.1243 C   0  0  0  0  0  0
   -5.0856   -5.1606   -7.6585 C   0  0  0  0  0  0
   -4.5616   -5.9283   -6.4460 C   0  0  0  0  0  0
   -5.9142   -6.1473   -8.5991 C   0  0  0  0  0  0
   -6.3682   -5.7921  -10.1112 C   0  0  0  0  0  0
   -7.1670   -4.4910  -10.4648 C   0  0  0  0  0  0
   -7.4003   -4.1406  -12.0049 C   0  0  0  0  0  0
   -8.6114   -4.6774  -12.8648 C   0  0  0  0  0  0
  -10.0640   -4.3600  -12.4214 C   0  0  0  0  0  0
  -10.3850   -2.8529  -12.0827 C   0  0  0  0  0  0
   -9.9430   -2.3584  -10.6997 C   0  0  0  0  0  0
   -9.9547   -3.3682   -9.5172 C   0  0  0  0  0  0
   -9.0241   -3.1565   -8.2865 C   0  0  0  0  0  0
   -8.6470   -4.4040   -7.4997 C   0  0  0  0  0  0
   -7.8228   -2.3870   -8.6623 N   0  0  0  0  0  0
  -11.3023   -3.2962   -8.9856 O   0  0  0  0  0  0
   -9.7626   -2.0342  -13.0787 O   0  0  0  0  0  0
   -5.1402   -5.6914  -10.8517 O   0  0  0  0  0  0
   -4.5611   -1.8556   -6.7210 O   0  0  0  0  0  0
   -3.3018   -2.0052   -7.2080 C   0  0  0  0  0  0
   -2.6857   -1.1927   -7.8711 O   0  0  0  0  0  0
   -2.7485   -3.3096   -6.7043 C   0  0  0  0  0  0
   -1.4096   -3.6769   -7.3638 C   0  0  0  0  0  0
   -0.6211   -4.7159   -6.5562 C   0  0  0  0  0  0
   -1.5013   -5.8767   -6.1547 C   0  0  0  0  0  0
   -1.9075   -6.7242   -6.9424 O   0  0  0  0  0  0
   -1.7979   -5.8950   -4.8468 O   0  0  0  0  0  0
   -1.7617   -4.2431   -8.7463 C   0  0  0  0  0  0
   -1.5932   -5.4144   -9.0500 O   0  0  0  0  0  0
   -2.2255   -3.3338   -9.6146 O   0  0  0  0  0  0
   -7.2916   -2.4535   -4.7443 O   0  0  0  0  0  0
   -7.9531   -1.6760   -5.6802 C   0  0  0  0  0  0
   -7.4028   -0.9340   -6.4832 O   0  0  0  0  0  0
   -9.4765   -1.8438   -5.6067 C   0  0  0  0  0  0
  -10.0779   -1.9487   -4.1708 C   0  0  0  0  0  0
   -9.1400   -2.3630   -3.0222 C   0  0  0  0  0  0
   -8.8364   -3.8334   -3.0143 C   0  0  0  0  0  0
   -8.2961   -4.4553   -3.9187 O   0  0  0  0  0  0
   -9.2090   -4.4282   -1.8708 O   0  0  0  0  0  0
  -10.8397   -0.7013   -3.7059 C   0  0  0  0  0  0
  -10.5620   -0.0995   -2.6873 O   0  0  0  0  0  0
  -11.7794   -0.2444   -4.5600 O   0  0  0  0  0  0
   -7.9057   -1.4390   -8.2976 H   0  0  0  0  0  0
   -7.8096   -2.2779   -9.6789 H   0  0  0  0  0  0
  -11.8479   -3.7978   -9.6275 H   0  0  0  0  0  0
   -8.8003   -2.0442  -12.9229 H   0  0  0  0  0  0
   -4.6165   -4.9678  -10.4687 H   0  0  0  0  0  0
   -2.2577   -6.6980   -4.5351 H   0  0  0  0  0  0
   -2.2961   -2.4169   -9.2496 H   0  0  0  0  0  0
   -9.4075   -3.7111   -1.2324 H   0  0  0  0  0  0
  -12.2409    0.5758   -4.2766 H   0  0  0  0  0  0
  1  2  1  0  0  0
  2  3  1  0  0  0
  3  4  1  0  0  0
  4  5  1  0  0  0
  5  6  1  0  0  0
  5  7  1  0  0  0
  7  8  1  0  0  0
  7 39  1  0  0  0
  8  9  1  0  0  0
  8 27  1  0  0  0
  9 10  1  0  0  0
 10 11  1  0  0  0
 10 12  1  0  0  0
 12 13  1  0  0  0
 13 14  1  0  0  0
 13 26  1  0  0  0
 14 15  1  0  0  0
 15 16  1  0  0  0
 16 17  1  0  0  0
 17 18  1  0  0  0
 18 19  1  0  0  0
 18 25  1  0  0  0
 19 20  1  0  0  0
 20 21  1  0  0  0
 20 24  1  0  0  0
 21 22  1  0  0  0
 21 23  1  0  0  0
 23 51  1  0  0  0
 23 52  1  0  0  0
 24 53  1  0  0  0
 25 54  1  0  0  0
 26 55  1  0  0  0
 27 28  1  0  0  0
 28 29  2  0  0  0
 28 30  1  0  0  0
 30 31  1  0  0  0
 31 32  1  0  0  0
 31 36  1  0  0  0
 32 33  1  0  0  0
 33 34  2  0  0  0
 33 35  1  0  0  0
 35 56  1  0  0  0
 36 37  2  0  0  0
 36 38  1  0  0  0
 38 57  1  0  0  0
 39 40  1  0  0  0
 40 41  2  0  0  0
 40 42  1  0  0  0
 42 43  1  0  0  0
 43 44  1  0  0  0
 43 48  1  0  0  0
 44 45  1  0  0  0
 45 46  2  0  0  0
 45 47  1  0  0  0
 47 58  1  0  0  0
 48 49  2  0  0  0
 48 50  1  0  0  0
 50 59  1  0  0  0
M  END
>  <AUTHOR>
    GENERATED BY OPEN BABEL 2.4.1

>  <CHROM.1>
77.54893780,-55.13465654,113.82354298,-179.03640458,118.55055076,160.21047918
-136.25706848,134.89870590,46.35403780,69.59657007,-53.42862726,172.16702256
-61.70887671,87.21227907,58.92886399,49.45190533,-79.63986183,-32.52686039
-72.44442571,155.05923298,-154.67580841,76.07759986,106.03722934,177.13990935
171.43763174,160.87198338,48.00246225,-112.31536974,72.02143010,-171.71704772
-0.96576197,0.80565204,39.72974564,-20.76386654,-76.41750625,-123.74569242
60.03006612,-12.66641308,-177.62810256,-6.40064237,-3.37312208,-6.75260242
-0.98833846,0.28169452,-1.78102960

>  <COMPND>
    UNNAMED

>  <MASTER>
        0    0    0    0    0    0    0    0  109    0  109    0

>  <Name>
FB1.pdb

>  <RI>
0

>  <Rbt.Current_Directory>
/home/fc/tossine/FB1_39/p3/0_clust04

>  <Rbt.Executable>
rbdock/0.1.0

>  <Rbt.Library>
librxdock.so/0.1.0

>  <Rbt.Parameter_File>
/cluster/rxdock/data/scripts/dock.prm

>  <Rbt.Receptor>
rx_4.prm

>  <SCORE>
78.2687

>  <SCORE.INTER>
32.8564

>  <SCORE.INTER.CONST>
1

>  <SCORE.INTER.POLAR>
-1.73235

>  <SCORE.INTER.REPUL>
3.05785

>  <SCORE.INTER.ROT>
32

>  <SCORE.INTER.VDW>
-13.9429

>  <SCORE.INTER.norm>
0.657127

>  <SCORE.INTRA>
29.899

>  <SCORE.INTRA.DIHEDRAL>
13.1409

>  <SCORE.INTRA.DIHEDRAL.0>
47.3121

>  <SCORE.INTRA.POLAR>
1.39125

>  <SCORE.INTRA.POLAR.0>
-1.47808

>  <SCORE.INTRA.REPUL>
0

>  <SCORE.INTRA.REPUL.0>
0

>  <SCORE.INTRA.VDW>
18.5983

>  <SCORE.INTRA.VDW.0>
-2.78316

>  <SCORE.INTRA.norm>
0.59798

>  <SCORE.RESTR>
15.5133

>  <SCORE.RESTR.CAVITY>
15.5133

>  <SCORE.RESTR.norm>
0.310267

>  <SCORE.SYSTEM>
0

>  <SCORE.SYSTEM.CONST>
0

>  <SCORE.SYSTEM.DIHEDRAL>
0

>  <SCORE.SYSTEM.norm>
0

>  <SCORE.heavy>
50

>  <SCORE.norm>
1.56537

$$$$
