FB1.pdb
  RxDock  10062023013D
librxdock.so/0.1.0
 59 58  0  0  0  0  0  0  0  0999 V2000
    2.6868   -0.1706   -7.7307 C   0  0  0  0  0  0
    4.1453   -0.4855   -8.0543 C   0  0  0  0  0  0
    4.7702    0.5841   -8.9652 C   0  0  0  0  0  0
    4.6037    2.0272   -8.4272 C   0  0  0  0  0  0
    5.6967    3.0435   -8.9101 C   0  0  0  0  0  0
    5.2543    3.6203  -10.2747 C   0  0  0  0  0  0
    5.9846    4.2059   -7.8690 C   0  0  0  0  0  0
    7.5146    4.4568   -7.4661 C   0  0  0  0  0  0
    8.3216    3.6270   -6.3759 C   0  0  0  0  0  0
    7.7565    2.1023   -6.0979 C   0  0  0  0  0  0
    6.2452    2.1762   -5.8863 C   0  0  0  0  0  0
    8.0874    1.0148   -7.2171 C   0  0  0  0  0  0
    9.5094    0.2542   -7.3513 C   0  0  0  0  0  0
   10.0229   -0.7630   -6.2754 C   0  0  0  0  0  0
   11.5521   -0.6803   -5.8238 C   0  0  0  0  0  0
   12.0870   -1.1374   -4.4098 C   0  0  0  0  0  0
   12.2160   -2.6510   -4.0938 C   0  0  0  0  0  0
   10.8703   -3.4691   -3.9988 C   0  0  0  0  0  0
    9.9061   -3.0631   -2.8772 C   0  0  0  0  0  0
    8.7511   -4.0372   -2.5092 C   0  0  0  0  0  0
    8.5533   -4.5104   -1.0387 C   0  0  0  0  0  0
    8.1572   -5.9672   -0.8432 C   0  0  0  0  0  0
    9.7276   -4.1680   -0.2139 N   0  0  0  0  0  0
    7.5392   -3.3105   -2.8360 O   0  0  0  0  0  0
   10.1885   -3.3449   -5.2517 O   0  0  0  0  0  0
    9.4090   -0.5051   -8.5678 O   0  0  0  0  0  0
    8.2878    4.2952   -8.6862 O   0  0  0  0  0  0
    9.0039    3.1482   -8.8153 C   0  0  0  0  0  0
    9.9943    2.8429   -8.1787 O   0  0  0  0  0  0
    8.3087    2.2627   -9.8123 C   0  0  0  0  0  0
    8.6587    2.6214  -11.2654 C   0  0  0  0  0  0
   10.0281    2.0776  -11.6924 C   0  0  0  0  0  0
   10.1588    0.6090  -11.3616 C   0  0  0  0  0  0
    9.4479   -0.2623  -11.8507 O   0  0  0  0  0  0
   11.1327    0.3448  -10.4782 O   0  0  0  0  0  0
    7.5537    2.0004  -12.1311 C   0  0  0  0  0  0
    7.2238    0.8269  -12.0507 O   0  0  0  0  0  0
    7.0106    2.8415  -13.0218 O   0  0  0  0  0  0
    5.3031    5.4618   -8.2667 O   0  0  0  0  0  0
    6.0195    6.3993   -8.9919 C   0  0  0  0  0  0
    6.9006    6.1310   -9.7982 O   0  0  0  0  0  0
    5.5869    7.8370   -8.6755 C   0  0  0  0  0  0
    6.7246    8.8014   -8.2171 C   0  0  0  0  0  0
    7.7986    9.1946   -9.2478 C   0  0  0  0  0  0
    8.8202    8.1171   -9.4707 C   0  0  0  0  0  0
    8.9692    7.4775  -10.5028 O   0  0  0  0  0  0
    9.6019    7.9213   -8.3978 O   0  0  0  0  0  0
    6.2355   10.0961   -7.5563 C   0  0  0  0  0  0
    5.0617   10.3239   -7.3391 O   0  0  0  0  0  0
    7.2059   10.9309   -7.1289 O   0  0  0  0  0  0
    9.7381   -3.1624   -0.0488 H   0  0  0  0  0  0
   10.5737   -4.3546   -0.7568 H   0  0  0  0  0  0
    7.5345   -3.2665   -3.8155 H   0  0  0  0  0  0
   10.7494   -3.7412   -5.9437 H   0  0  0  0  0  0
    8.7656   -1.2191   -8.4244 H   0  0  0  0  0  0
   10.9826   -0.4380   -9.9142 H   0  0  0  0  0  0
    6.4186    2.4091  -13.6861 H   0  0  0  0  0  0
   10.1568    7.1370   -8.5934 H   0  0  0  0  0  0
    8.1253   10.6272   -7.2980 H   0  0  0  0  0  0
  1  2  1  0  0  0
  2  3  1  0  0  0
  3  4  1  0  0  0
  4  5  1  0  0  0
  5  6  1  0  0  0
  5  7  1  0  0  0
  7  8  1  0  0  0
  7 39  1  0  0  0
  8  9  1  0  0  0
  8 27  1  0  0  0
  9 10  1  0  0  0
 10 11  1  0  0  0
 10 12  1  0  0  0
 12 13  1  0  0  0
 13 14  1  0  0  0
 13 26  1  0  0  0
 14 15  1  0  0  0
 15 16  1  0  0  0
 16 17  1  0  0  0
 17 18  1  0  0  0
 18 19  1  0  0  0
 18 25  1  0  0  0
 19 20  1  0  0  0
 20 21  1  0  0  0
 20 24  1  0  0  0
 21 22  1  0  0  0
 21 23  1  0  0  0
 23 51  1  0  0  0
 23 52  1  0  0  0
 24 53  1  0  0  0
 25 54  1  0  0  0
 26 55  1  0  0  0
 27 28  1  0  0  0
 28 29  2  0  0  0
 28 30  1  0  0  0
 30 31  1  0  0  0
 31 32  1  0  0  0
 31 36  1  0  0  0
 32 33  1  0  0  0
 33 34  2  0  0  0
 33 35  1  0  0  0
 35 56  1  0  0  0
 36 37  2  0  0  0
 36 38  1  0  0  0
 38 57  1  0  0  0
 39 40  1  0  0  0
 40 41  2  0  0  0
 40 42  1  0  0  0
 42 43  1  0  0  0
 43 44  1  0  0  0
 43 48  1  0  0  0
 44 45  1  0  0  0
 45 46  2  0  0  0
 45 47  1  0  0  0
 47 58  1  0  0  0
 48 49  2  0  0  0
 48 50  1  0  0  0
 50 59  1  0  0  0
M  END
>  <AUTHOR>
    GENERATED BY OPEN BABEL 2.4.1

>  <CHROM.1>
52.72175731,154.10676806,85.96247277,128.49022064,-82.03191127,-95.20741428
24.58366517,-104.93089403,-48.68635373,80.09946751,67.10435215,-136.55303437
-69.07060006,152.67708474,74.63375026,-66.90329776,-63.35462641,-165.01320407
62.38654492,126.30603808,-140.70951178,69.70608093,72.53830726,-69.90179883
82.87172685,78.71691540,50.09846279,-51.82438547,62.88353968,150.55065551
169.57171911,32.44917209,124.89257575,67.89130362,-77.59761406,3.84010489
112.68492657,173.26511275,0.85707837,8.02293819,2.20349711,-7.65355676,-0.72902948
1.29336816,-1.31189885

>  <COMPND>
    UNNAMED

>  <MASTER>
        0    0    0    0    0    0    0    0  109    0  109    0

>  <Name>
FB1.pdb

>  <RI>
0

>  <Rbt.Current_Directory>
/home/fc/tossine/FB1_39/p3/0_clust04

>  <Rbt.Executable>
rbdock/0.1.0

>  <Rbt.Library>
librxdock.so/0.1.0

>  <Rbt.Parameter_File>
/cluster/rxdock/data/scripts/dock.prm

>  <Rbt.Receptor>
rx_4.prm

>  <SCORE>
57.5199

>  <SCORE.INTER>
9.56123

>  <SCORE.INTER.CONST>
1

>  <SCORE.INTER.POLAR>
-2.46881

>  <SCORE.INTER.REPUL>
0.205818

>  <SCORE.INTER.ROT>
32

>  <SCORE.INTER.VDW>
-20.4739

>  <SCORE.INTER.norm>
0.191225

>  <SCORE.INTRA>
40.8988

>  <SCORE.INTRA.DIHEDRAL>
52.0607

>  <SCORE.INTRA.DIHEDRAL.0>
47.3121

>  <SCORE.INTRA.POLAR>
1.05403

>  <SCORE.INTRA.POLAR.0>
-1.47808

>  <SCORE.INTRA.REPUL>
0

>  <SCORE.INTRA.REPUL.0>
0

>  <SCORE.INTRA.VDW>
11.2848

>  <SCORE.INTRA.VDW.0>
-2.78316

>  <SCORE.INTRA.norm>
0.817976

>  <SCORE.RESTR>
7.05982

>  <SCORE.RESTR.CAVITY>
7.05982

>  <SCORE.RESTR.norm>
0.141196

>  <SCORE.SYSTEM>
0

>  <SCORE.SYSTEM.CONST>
0

>  <SCORE.SYSTEM.DIHEDRAL>
0

>  <SCORE.SYSTEM.norm>
0

>  <SCORE.heavy>
50

>  <SCORE.norm>
1.1504

$$$$
