FB1.pdb
  RxDock  10062022553D
librxdock.so/0.1.0
 59 58  0  0  0  0  0  0  0  0999 V2000
   -3.9088   -2.5010   -0.8692 C   0  0  0  0  0  0
   -4.0055   -1.7132   -2.1736 C   0  0  0  0  0  0
   -4.4802   -2.5971   -3.3388 C   0  0  0  0  0  0
   -3.3624   -2.9262   -4.3595 C   0  0  0  0  0  0
   -3.7665   -3.9520   -5.4752 C   0  0  0  0  0  0
   -4.0066   -5.3259   -4.8077 C   0  0  0  0  0  0
   -5.0322   -3.5028   -6.3202 C   0  0  0  0  0  0
   -4.8317   -2.2765   -7.3312 C   0  0  0  0  0  0
   -3.6862   -2.1736   -8.4291 C   0  0  0  0  0  0
   -2.4126   -3.1988   -8.2094 C   0  0  0  0  0  0
   -2.7677   -4.5520   -8.8232 C   0  0  0  0  0  0
   -1.0066   -2.7055   -8.7790 C   0  0  0  0  0  0
    0.0813   -1.8747   -7.9159 C   0  0  0  0  0  0
    0.7934   -0.5938   -8.4711 C   0  0  0  0  0  0
    1.8127    0.1801   -7.5165 C   0  0  0  0  0  0
    3.3762   -0.0434   -7.5186 C   0  0  0  0  0  0
    4.2632    0.7676   -8.4998 C   0  0  0  0  0  0
    5.8159    0.4946   -8.4376 C   0  0  0  0  0  0
    6.6035    0.7534   -9.7280 C   0  0  0  0  0  0
    7.0953    2.2007  -10.0139 C   0  0  0  0  0  0
    6.2159    3.4263   -9.6267 C   0  0  0  0  0  0
    6.7663    4.7977   -9.9924 C   0  0  0  0  0  0
    4.8368    3.2618  -10.1241 N   0  0  0  0  0  0
    8.3037    2.3411   -9.2241 O   0  0  0  0  0  0
    6.3664    1.3099   -7.3975 O   0  0  0  0  0  0
   -0.6328   -1.4313   -6.7497 O   0  0  0  0  0  0
   -6.0672   -2.1685   -8.0891 O   0  0  0  0  0  0
   -7.2200   -2.0644   -7.3780 C   0  0  0  0  0  0
   -7.3437   -1.5604   -6.2780 O   0  0  0  0  0  0
   -8.3490   -2.5877   -8.2224 C   0  0  0  0  0  0
   -9.5686   -3.0042   -7.3848 C   0  0  0  0  0  0
  -10.1361   -1.8456   -6.5548 C   0  0  0  0  0  0
  -10.6193   -2.3265   -5.2063 C   0  0  0  0  0  0
   -9.8683   -2.6534   -4.2937 O   0  0  0  0  0  0
  -11.9558   -2.3614   -5.0989 O   0  0  0  0  0  0
  -10.6209   -3.4966   -8.3879 C   0  0  0  0  0  0
  -11.0502   -4.6403   -8.3968 O   0  0  0  0  0  0
  -10.9971   -2.5794   -9.2897 O   0  0  0  0  0  0
   -5.6759   -4.6651   -6.9794 O   0  0  0  0  0  0
   -7.0327   -4.8645   -6.7858 C   0  0  0  0  0  0
   -7.6697   -4.4393   -5.8309 O   0  0  0  0  0  0
   -7.6684   -5.6886   -7.9132 C   0  0  0  0  0  0
   -7.2001   -5.3336   -9.3586 C   0  0  0  0  0  0
   -5.7230   -5.5742   -9.7200 C   0  0  0  0  0  0
   -5.4209   -5.3024  -11.1655 C   0  0  0  0  0  0
   -6.2409   -4.9979  -12.0207 O   0  0  0  0  0  0
   -4.1131   -5.4094  -11.4453 O   0  0  0  0  0  0
   -8.0469   -5.9578  -10.4746 C   0  0  0  0  0  0
   -7.7612   -7.0108  -11.0099 O   0  0  0  0  0  0
   -9.1990   -5.3141  -10.7568 O   0  0  0  0  0  0
    4.8300    3.3832  -11.1360 H   0  0  0  0  0  0
    4.2656    4.0291   -9.7630 H   0  0  0  0  0  0
    8.9443    1.7277   -9.6422 H   0  0  0  0  0  0
    5.9105    1.0892   -6.5645 H   0  0  0  0  0  0
    0.0075   -1.0268   -6.1407 H   0  0  0  0  0  0
  -12.4446   -2.2152   -5.9314 H   0  0  0  0  0  0
  -10.3486   -2.4349  -10.0227 H   0  0  0  0  0  0
   -4.0431   -5.5504  -12.4131 H   0  0  0  0  0  0
   -9.5453   -4.7392  -10.0387 H   0  0  0  0  0  0
  1  2  1  0  0  0
  2  3  1  0  0  0
  3  4  1  0  0  0
  4  5  1  0  0  0
  5  6  1  0  0  0
  5  7  1  0  0  0
  7  8  1  0  0  0
  7 39  1  0  0  0
  8  9  1  0  0  0
  8 27  1  0  0  0
  9 10  1  0  0  0
 10 11  1  0  0  0
 10 12  1  0  0  0
 12 13  1  0  0  0
 13 14  1  0  0  0
 13 26  1  0  0  0
 14 15  1  0  0  0
 15 16  1  0  0  0
 16 17  1  0  0  0
 17 18  1  0  0  0
 18 19  1  0  0  0
 18 25  1  0  0  0
 19 20  1  0  0  0
 20 21  1  0  0  0
 20 24  1  0  0  0
 21 22  1  0  0  0
 21 23  1  0  0  0
 23 51  1  0  0  0
 23 52  1  0  0  0
 24 53  1  0  0  0
 25 54  1  0  0  0
 26 55  1  0  0  0
 27 28  1  0  0  0
 28 29  2  0  0  0
 28 30  1  0  0  0
 30 31  1  0  0  0
 31 32  1  0  0  0
 31 36  1  0  0  0
 32 33  1  0  0  0
 33 34  2  0  0  0
 33 35  1  0  0  0
 35 56  1  0  0  0
 36 37  2  0  0  0
 36 38  1  0  0  0
 38 57  1  0  0  0
 39 40  1  0  0  0
 40 41  2  0  0  0
 40 42  1  0  0  0
 42 43  1  0  0  0
 43 44  1  0  0  0
 43 48  1  0  0  0
 44 45  1  0  0  0
 45 46  2  0  0  0
 45 47  1  0  0  0
 47 58  1  0  0  0
 48 49  2  0  0  0
 48 50  1  0  0  0
 50 59  1  0  0  0
M  END
>  <AUTHOR>
    GENERATED BY OPEN BABEL 2.4.1

>  <CHROM.1>
-107.77355615,173.58755846,-66.71842615,71.09994266,51.95395867,127.07179931
-17.28602185,53.83356133,84.52357268,91.83738758,-133.26973608,177.87746795
172.58999999,95.33580648,87.04467897,179.69647886,153.19943557,85.12403833
57.65201908,-36.79154237,-177.96376167,67.32145344,-72.45127630,29.87090828
158.74642021,59.22484177,-143.00310803,118.02109919,73.18595870,9.37919294
77.23745815,-23.41957795,-41.75686207,64.28472271,175.24706464,-94.16951878
-4.18309356,159.44819974,-21.75870635,-3.53827512,-2.33919508,-7.77693755
3.10025663,-0.37920567,-1.90000819

>  <COMPND>
    UNNAMED

>  <MASTER>
        0    0    0    0    0    0    0    0  109    0  109    0

>  <Name>
FB1.pdb

>  <RI>
0

>  <Rbt.Current_Directory>
/home/fc/tossine/FB1_39/p3/0_clust04

>  <Rbt.Executable>
rbdock/0.1.0

>  <Rbt.Library>
librxdock.so/0.1.0

>  <Rbt.Parameter_File>
/cluster/rxdock/data/scripts/dock.prm

>  <Rbt.Receptor>
rx_4.prm

>  <SCORE>
42.1505

>  <SCORE.INTER>
8.94427

>  <SCORE.INTER.CONST>
1

>  <SCORE.INTER.POLAR>
-2.87571

>  <SCORE.INTER.REPUL>
0.788635

>  <SCORE.INTER.ROT>
32

>  <SCORE.INTER.VDW>
-22.6215

>  <SCORE.INTER.norm>
0.178885

>  <SCORE.INTRA>
27.4331

>  <SCORE.INTRA.DIHEDRAL>
49.3035

>  <SCORE.INTRA.DIHEDRAL.0>
47.3121

>  <SCORE.INTRA.POLAR>
1.47808

>  <SCORE.INTRA.POLAR.0>
-1.47808

>  <SCORE.INTRA.REPUL>
0

>  <SCORE.INTRA.REPUL.0>
0

>  <SCORE.INTRA.VDW>
-2.24414

>  <SCORE.INTRA.VDW.0>
-2.78316

>  <SCORE.INTRA.norm>
0.548661

>  <SCORE.RESTR>
5.7732

>  <SCORE.RESTR.CAVITY>
5.7732

>  <SCORE.RESTR.norm>
0.115464

>  <SCORE.SYSTEM>
0

>  <SCORE.SYSTEM.CONST>
0

>  <SCORE.SYSTEM.DIHEDRAL>
0

>  <SCORE.SYSTEM.norm>
0

>  <SCORE.heavy>
50

>  <SCORE.norm>
0.843011

$$$$
