FB1.pdb
  RxDock  10062020013D
librxdock.so/0.1.0
 59 58  0  0  0  0  0  0  0  0999 V2000
   -5.4255   -5.7268  -11.7720 C   0  0  0  0  0  0
   -5.8348   -6.3051  -10.4195 C   0  0  0  0  0  0
   -5.1606   -5.5614   -9.2547 C   0  0  0  0  0  0
   -5.4242   -4.0349   -9.2615 C   0  0  0  0  0  0
   -6.3964   -3.5265   -8.1405 C   0  0  0  0  0  0
   -5.5764   -2.6947   -7.1273 C   0  0  0  0  0  0
   -7.6246   -2.6909   -8.6985 C   0  0  0  0  0  0
   -8.3870   -3.2863   -9.9753 C   0  0  0  0  0  0
   -8.4437   -4.8250  -10.3720 C   0  0  0  0  0  0
   -9.3923   -5.1770  -11.6750 C   0  0  0  0  0  0
   -8.6912   -4.6733  -12.9355 C   0  0  0  0  0  0
   -9.7906   -6.7105  -11.8609 C   0  0  0  0  0  0
  -10.7641   -7.2599  -13.0310 C   0  0  0  0  0  0
  -10.4727   -7.0135  -14.5510 C   0  0  0  0  0  0
  -10.7119   -5.5491  -15.1404 C   0  0  0  0  0  0
  -10.3080   -5.1018  -16.6003 C   0  0  0  0  0  0
  -10.6048   -6.0428  -17.7978 C   0  0  0  0  0  0
  -10.0798   -7.5256  -17.6769 C   0  0  0  0  0  0
  -10.1942   -8.3918  -18.9376 C   0  0  0  0  0  0
   -9.4137   -7.9511  -20.2083 C   0  0  0  0  0  0
   -8.6234   -8.9939  -21.0530 C   0  0  0  0  0  0
   -7.3787   -9.5858  -20.4067 C   0  0  0  0  0  0
   -9.5185  -10.0580  -21.5457 N   0  0  0  0  0  0
  -10.4312   -7.4357  -21.1044 O   0  0  0  0  0  0
   -8.7044   -7.4765  -17.2823 O   0  0  0  0  0  0
  -10.7595   -8.6889  -12.8749 O   0  0  0  0  0  0
   -9.7809   -2.8998   -9.8330 O   0  0  0  0  0  0
  -10.1153   -1.6424  -10.2234 C   0  0  0  0  0  0
   -9.3828   -0.8402  -10.7704 O   0  0  0  0  0  0
  -11.5812   -1.4359   -9.9586 C   0  0  0  0  0  0
  -12.2512   -0.5409  -11.0134 C   0  0  0  0  0  0
  -11.9911   -1.0236  -12.4461 C   0  0  0  0  0  0
  -12.5896   -0.0745  -13.4582 C   0  0  0  0  0  0
  -13.1220   -0.4414  -14.5001 O   0  0  0  0  0  0
  -12.4850    1.2159  -13.1077 O   0  0  0  0  0  0
  -13.7551   -0.5840  -10.7094 C   0  0  0  0  0  0
  -14.3222   -1.5811  -10.2892 O   0  0  0  0  0  0
  -14.4089    0.5516  -10.9902 O   0  0  0  0  0  0
   -8.5650   -2.3295   -7.6100 O   0  0  0  0  0  0
   -9.6144   -3.1898   -7.3329 C   0  0  0  0  0  0
   -9.7523   -4.3015   -7.8264 O   0  0  0  0  0  0
  -10.6056   -2.5956   -6.3236 C   0  0  0  0  0  0
   -9.9888   -1.6560   -5.2414 C   0  0  0  0  0  0
  -10.1938   -0.1383   -5.3994 C   0  0  0  0  0  0
  -11.5956    0.2262   -5.7951 C   0  0  0  0  0  0
  -12.3703    0.9039   -5.1339 O   0  0  0  0  0  0
  -11.9327   -0.2624   -6.9984 O   0  0  0  0  0  0
  -10.3613   -2.0154   -3.7976 C   0  0  0  0  0  0
   -9.5666   -1.9684   -2.8795 O   0  0  0  0  0  0
  -11.6661   -2.2879   -3.5867 O   0  0  0  0  0  0
   -9.1551  -10.4189  -22.4267 H   0  0  0  0  0  0
  -10.4212   -9.6411  -21.7842 H   0  0  0  0  0  0
  -10.8553   -6.7075  -20.6033 H   0  0  0  0  0  0
   -8.4329   -8.3733  -17.0132 H   0  0  0  0  0  0
   -9.8348   -8.9823  -12.8181 H   0  0  0  0  0  0
  -11.9813    1.3856  -12.2886 H   0  0  0  0  0  0
  -15.3689    0.5419  -10.7512 H   0  0  0  0  0  0
  -12.6582    0.3027   -7.3383 H   0  0  0  0  0  0
  -11.9072   -2.4907   -2.6556 H   0  0  0  0  0  0
  1  2  1  0  0  0
  2  3  1  0  0  0
  3  4  1  0  0  0
  4  5  1  0  0  0
  5  6  1  0  0  0
  5  7  1  0  0  0
  7  8  1  0  0  0
  7 39  1  0  0  0
  8  9  1  0  0  0
  8 27  1  0  0  0
  9 10  1  0  0  0
 10 11  1  0  0  0
 10 12  1  0  0  0
 12 13  1  0  0  0
 13 14  1  0  0  0
 13 26  1  0  0  0
 14 15  1  0  0  0
 15 16  1  0  0  0
 16 17  1  0  0  0
 17 18  1  0  0  0
 18 19  1  0  0  0
 18 25  1  0  0  0
 19 20  1  0  0  0
 20 21  1  0  0  0
 20 24  1  0  0  0
 21 22  1  0  0  0
 21 23  1  0  0  0
 23 51  1  0  0  0
 23 52  1  0  0  0
 24 53  1  0  0  0
 25 54  1  0  0  0
 26 55  1  0  0  0
 27 28  1  0  0  0
 28 29  2  0  0  0
 28 30  1  0  0  0
 30 31  1  0  0  0
 31 32  1  0  0  0
 31 36  1  0  0  0
 32 33  1  0  0  0
 33 34  2  0  0  0
 33 35  1  0  0  0
 35 56  1  0  0  0
 36 37  2  0  0  0
 36 38  1  0  0  0
 38 57  1  0  0  0
 39 40  1  0  0  0
 40 41  2  0  0  0
 40 42  1  0  0  0
 42 43  1  0  0  0
 43 44  1  0  0  0
 43 48  1  0  0  0
 44 45  1  0  0  0
 45 46  2  0  0  0
 45 47  1  0  0  0
 47 58  1  0  0  0
 48 49  2  0  0  0
 48 50  1  0  0  0
 50 59  1  0  0  0
M  END
>  <AUTHOR>
    GENERATED BY OPEN BABEL 2.4.1

>  <CHROM.1>
55.77489455,108.09550792,110.71819370,45.20820959,26.06759924,-91.20169902
175.65400727,81.61592414,72.08299809,177.18577511,56.56018263,-73.69079141
-49.91581018,172.59532165,43.71177050,-52.64285181,-171.44704107,61.88536206
167.46607980,135.95552582,-69.28050045,58.58198750,150.74927942,5.70865102
-145.52190464,52.39746221,-176.43085830,-35.10789688,-142.26926182,4.51766293
-176.96688474,7.91912442,-32.83122658,104.28992838,43.52860413,139.42657084
117.65673882,-156.61502135,-178.18617014,-9.95579997,-3.82393107,-11.52540761
-1.47860404,-0.71035775,1.13855371

>  <COMPND>
    UNNAMED

>  <MASTER>
        0    0    0    0    0    0    0    0  109    0  109    0

>  <Name>
FB1.pdb

>  <RI>
0

>  <Rbt.Current_Directory>
/home/fc/tossine/FB1_39/p3/0_clust04

>  <Rbt.Executable>
rbdock/0.1.0

>  <Rbt.Library>
librxdock.so/0.1.0

>  <Rbt.Parameter_File>
/cluster/rxdock/data/scripts/dock.prm

>  <Rbt.Receptor>
rx_0.prm

>  <SCORE>
20.6911

>  <SCORE.INTER>
9.23592

>  <SCORE.INTER.CONST>
1

>  <SCORE.INTER.POLAR>
-0.440022

>  <SCORE.INTER.REPUL>
0.378444

>  <SCORE.INTER.ROT>
32

>  <SCORE.INTER.VDW>
-28.5602

>  <SCORE.INTER.norm>
0.184718

>  <SCORE.INTRA>
10.6405

>  <SCORE.INTRA.DIHEDRAL>
6.70754

>  <SCORE.INTRA.DIHEDRAL.0>
47.3121

>  <SCORE.INTRA.POLAR>
1.39564

>  <SCORE.INTRA.POLAR.0>
-1.47808

>  <SCORE.INTRA.REPUL>
0

>  <SCORE.INTRA.REPUL.0>
0

>  <SCORE.INTRA.VDW>
2.54155

>  <SCORE.INTRA.VDW.0>
-2.78316

>  <SCORE.INTRA.norm>
0.21281

>  <SCORE.RESTR>
0.814718

>  <SCORE.RESTR.CAVITY>
0.814718

>  <SCORE.RESTR.norm>
0.0162944

>  <SCORE.SYSTEM>
0

>  <SCORE.SYSTEM.CONST>
0

>  <SCORE.SYSTEM.DIHEDRAL>
0

>  <SCORE.SYSTEM.norm>
0

>  <SCORE.heavy>
50

>  <SCORE.norm>
0.413823

$$$$
