FB1.pdb
  RxDock  09132002503D
librxdock.so/0.1.0
 59 58  0  0  0  0  0  0  0  0999 V2000
   -2.7472   -7.9831   -4.5510 C   0  0  0  0  0  0
   -2.6800   -7.4029   -5.9617 C   0  0  0  0  0  0
   -3.5814   -6.1664   -6.1123 C   0  0  0  0  0  0
   -3.4470   -5.4682   -7.4886 C   0  0  0  0  0  0
   -3.9910   -3.9978   -7.5404 C   0  0  0  0  0  0
   -3.1810   -3.2176   -8.6015 C   0  0  0  0  0  0
   -5.5475   -3.9085   -7.8359 C   0  0  0  0  0  0
   -6.0401   -4.3879   -9.2828 C   0  0  0  0  0  0
   -5.9180   -5.8697   -9.8465 C   0  0  0  0  0  0
   -6.3709   -6.0585  -11.4214 C   0  0  0  0  0  0
   -5.7835   -7.3695  -11.9413 C   0  0  0  0  0  0
   -7.9392   -6.0231  -11.7111 C   0  0  0  0  0  0
   -8.6002   -5.4136  -13.0566 C   0  0  0  0  0  0
  -10.0079   -5.8625  -13.5788 C   0  0  0  0  0  0
  -10.5166   -5.2842  -14.9774 C   0  0  0  0  0  0
   -9.5724   -4.6490  -16.0726 C   0  0  0  0  0  0
   -8.3517   -5.4548  -16.5903 C   0  0  0  0  0  0
   -8.6661   -6.7058  -17.4989 C   0  0  0  0  0  0
   -9.4121   -7.8644  -16.8254 C   0  0  0  0  0  0
   -8.7635   -8.5347  -15.5811 C   0  0  0  0  0  0
   -9.5079   -9.6678  -14.8145 C   0  0  0  0  0  0
   -8.9549  -10.0355  -13.4447 C   0  0  0  0  0  0
  -10.9550   -9.3903  -14.7420 N   0  0  0  0  0  0
   -7.5538   -9.1552  -16.0865 O   0  0  0  0  0  0
   -9.4387   -6.2564  -18.6173 O   0  0  0  0  0  0
   -8.7267   -4.0046  -12.8007 O   0  0  0  0  0  0
   -7.4624   -4.0952   -9.3455 O   0  0  0  0  0  0
   -7.8369   -2.8067   -9.1339 C   0  0  0  0  0  0
   -7.1763   -1.9468   -8.5829 O   0  0  0  0  0  0
   -9.1731   -2.5860   -9.7874 C   0  0  0  0  0  0
  -10.3464   -3.0119   -8.8905 C   0  0  0  0  0  0
  -11.4454   -1.9444   -8.8124 C   0  0  0  0  0  0
  -11.8907   -1.5186  -10.1921 C   0  0  0  0  0  0
  -11.3667   -1.9164  -11.2269 O   0  0  0  0  0  0
  -12.9211   -0.6600  -10.1797 O   0  0  0  0  0  0
  -10.9071   -4.2985   -9.5121 C   0  0  0  0  0  0
  -11.2252   -5.2751   -8.8508 O   0  0  0  0  0  0
  -10.9740   -4.2825  -10.8505 O   0  0  0  0  0  0
   -6.3360   -4.5340   -6.7465 O   0  0  0  0  0  0
   -6.4425   -3.8617   -5.5403 C   0  0  0  0  0  0
   -5.8362   -2.8363   -5.2587 O   0  0  0  0  0  0
   -7.4179   -4.5469   -4.5742 C   0  0  0  0  0  0
   -8.1921   -3.5982   -3.6072 C   0  0  0  0  0  0
   -7.3847   -2.8394   -2.5382 C   0  0  0  0  0  0
   -6.0372   -3.4486   -2.2787 C   0  0  0  0  0  0
   -5.8302   -4.6073   -1.9450 O   0  0  0  0  0  0
   -5.0346   -2.5779   -2.4712 O   0  0  0  0  0  0
   -9.0939   -2.5731   -4.3060 C   0  0  0  0  0  0
   -8.7282   -1.9124   -5.2580 O   0  0  0  0  0  0
  -10.3675   -2.5243   -3.8624 O   0  0  0  0  0  0
  -11.1113   -8.5892  -14.1318 H   0  0  0  0  0  0
  -11.4145  -10.1733  -14.2716 H   0  0  0  0  0  0
   -7.0732   -9.4486  -15.2838 H   0  0  0  0  0  0
  -10.2732   -5.8819  -18.2797 H   0  0  0  0  0  0
   -9.4134   -3.8824  -12.1240 H   0  0  0  0  0  0
  -13.2292   -0.3918   -9.2929 H   0  0  0  0  0  0
  -11.3937   -5.0845  -11.2497 H   0  0  0  0  0  0
   -5.4476   -1.7226   -2.7143 H   0  0  0  0  0  0
  -10.5819   -3.1471   -3.1327 H   0  0  0  0  0  0
  1  2  1  0  0  0
  2  3  1  0  0  0
  3  4  1  0  0  0
  4  5  1  0  0  0
  5  6  1  0  0  0
  5  7  1  0  0  0
  7  8  1  0  0  0
  7 39  1  0  0  0
  8  9  1  0  0  0
  8 27  1  0  0  0
  9 10  1  0  0  0
 10 11  1  0  0  0
 10 12  1  0  0  0
 12 13  1  0  0  0
 13 14  1  0  0  0
 13 26  1  0  0  0
 14 15  1  0  0  0
 15 16  1  0  0  0
 16 17  1  0  0  0
 17 18  1  0  0  0
 18 19  1  0  0  0
 18 25  1  0  0  0
 19 20  1  0  0  0
 20 21  1  0  0  0
 20 24  1  0  0  0
 21 22  1  0  0  0
 21 23  1  0  0  0
 23 51  1  0  0  0
 23 52  1  0  0  0
 24 53  1  0  0  0
 25 54  1  0  0  0
 26 55  1  0  0  0
 27 28  1  0  0  0
 28 29  2  0  0  0
 28 30  1  0  0  0
 30 31  1  0  0  0
 31 32  1  0  0  0
 31 36  1  0  0  0
 32 33  1  0  0  0
 33 34  2  0  0  0
 33 35  1  0  0  0
 35 56  1  0  0  0
 36 37  2  0  0  0
 36 38  1  0  0  0
 38 57  1  0  0  0
 39 40  1  0  0  0
 40 41  2  0  0  0
 40 42  1  0  0  0
 42 43  1  0  0  0
 43 44  1  0  0  0
 43 48  1  0  0  0
 44 45  1  0  0  0
 45 46  2  0  0  0
 45 47  1  0  0  0
 47 58  1  0  0  0
 48 49  2  0  0  0
 48 50  1  0  0  0
 50 59  1  0  0  0
M  END
>  <AUTHOR>
    GENERATED BY OPEN BABEL 2.4.1

>  <CHROM.1>
174.75497860,-162.30813896,150.62058295,-66.58419080,63.75024217,73.62347485
-174.33185309,56.93226062,161.66676391,145.93750494,155.62624210,-175.23289220
-69.45714292,19.02709623,53.90806821,70.56088621,-65.31479963,-58.52639741
-61.61527399,176.95544548,-166.34448196,170.99293067,-68.69948675,-19.51405008
84.55444559,131.88026903,52.49705878,136.69041861,-4.66985840,2.31885416
-175.90319794,-6.72568513,-148.17477297,-66.25250671,-18.97988529,-46.01981735
-56.14472738,1.82633734,0.42682881,-7.94354366,-4.80309491,-9.62893788,-1.25172135
0.58621691,-2.03190620

>  <COMPND>
    UNNAMED

>  <MASTER>
        0    0    0    0    0    0    0    0  109    0  109    0

>  <Name>
FB1.pdb

>  <RI>
0

>  <Rbt.Current_Directory>
/home/fc/tossine/FB1_39/p3/0_clust04

>  <Rbt.Executable>
rbdock/0.1.0

>  <Rbt.Library>
librxdock.so/0.1.0

>  <Rbt.Parameter_File>
/cluster/rxdock/data/scripts/dock.prm

>  <Rbt.Receptor>
rx_1.prm

>  <SCORE>
3.87881

>  <SCORE.INTER>
2.98824

>  <SCORE.INTER.CONST>
1

>  <SCORE.INTER.POLAR>
-1.10184

>  <SCORE.INTER.REPUL>
0.0841339

>  <SCORE.INTER.ROT>
32

>  <SCORE.INTER.VDW>
-31.0862

>  <SCORE.INTER.norm>
0.0597647

>  <SCORE.INTRA>
0.13408

>  <SCORE.INTRA.DIHEDRAL>
-0.627635

>  <SCORE.INTRA.DIHEDRAL.0>
47.3121

>  <SCORE.INTRA.POLAR>
0.478077

>  <SCORE.INTRA.POLAR.0>
-1.47808

>  <SCORE.INTRA.REPUL>
0

>  <SCORE.INTRA.REPUL.0>
0

>  <SCORE.INTRA.VDW>
-1.17756

>  <SCORE.INTRA.VDW.0>
-2.78316

>  <SCORE.INTRA.norm>
0.0026816

>  <SCORE.RESTR>
0.756493

>  <SCORE.RESTR.CAVITY>
0.756493

>  <SCORE.RESTR.norm>
0.0151299

>  <SCORE.SYSTEM>
0

>  <SCORE.SYSTEM.CONST>
0

>  <SCORE.SYSTEM.DIHEDRAL>
0

>  <SCORE.SYSTEM.norm>
0

>  <SCORE.heavy>
50

>  <SCORE.norm>
0.0775762

$$$$
