FB1.pdb
  RxDock  10062019563D
librxdock.so/0.1.0
 59 58  0  0  0  0  0  0  0  0999 V2000
   -5.7884   -0.2862   -7.2929 C   0  0  0  0  0  0
   -5.2416   -1.7079   -7.1889 C   0  0  0  0  0  0
   -6.0947   -2.5790   -6.2520 C   0  0  0  0  0  0
   -7.5107   -2.8769   -6.8049 C   0  0  0  0  0  0
   -7.5398   -3.6930   -8.1441 C   0  0  0  0  0  0
   -7.1371   -5.1528   -7.8320 C   0  0  0  0  0  0
   -8.9397   -3.6375   -8.8892 C   0  0  0  0  0  0
   -9.1353   -4.6185  -10.1404 C   0  0  0  0  0  0
  -10.5376   -5.0742  -10.7355 C   0  0  0  0  0  0
  -10.4847   -6.4029  -11.7118 C   0  0  0  0  0  0
  -11.8289   -7.1237  -11.6233 C   0  0  0  0  0  0
  -10.1201   -6.1370  -13.2418 C   0  0  0  0  0  0
  -10.1744   -7.2683  -14.3976 C   0  0  0  0  0  0
   -9.2758   -8.5517  -14.3600 C   0  0  0  0  0  0
   -9.5025   -9.6681  -15.4787 C   0  0  0  0  0  0
   -8.6883  -11.0188  -15.5640 C   0  0  0  0  0  0
   -9.1539  -12.1318  -16.5396 C   0  0  0  0  0  0
   -9.7964  -11.6549  -17.8993 C   0  0  0  0  0  0
   -8.8389  -11.0274  -18.9200 C   0  0  0  0  0  0
   -8.2874   -9.6018  -18.6342 C   0  0  0  0  0  0
   -6.8557   -9.4090  -18.0524 C   0  0  0  0  0  0
   -6.6785   -8.2774  -17.0497 C   0  0  0  0  0  0
   -6.3324  -10.6784  -17.5128 N   0  0  0  0  0  0
   -8.2561   -8.9529  -19.9311 O   0  0  0  0  0  0
  -10.4329  -12.7841  -18.5072 O   0  0  0  0  0  0
  -11.5265   -7.7561  -14.3739 O   0  0  0  0  0  0
   -8.4566   -3.9886  -11.2607 O   0  0  0  0  0  0
   -8.7647   -2.6909  -11.5180 C   0  0  0  0  0  0
   -8.9935   -1.8283  -10.6915 O   0  0  0  0  0  0
   -8.6774   -2.4662  -13.0023 C   0  0  0  0  0  0
   -9.8367   -3.1235  -13.7681 C   0  0  0  0  0  0
  -11.1485   -3.1131  -12.9727 C   0  0  0  0  0  0
  -11.5601   -1.7029  -12.6186 C   0  0  0  0  0  0
  -11.9924   -0.8972  -13.4357 O   0  0  0  0  0  0
  -11.4092   -1.4129  -11.3179 O   0  0  0  0  0  0
  -10.0005   -2.3139  -15.0618 C   0  0  0  0  0  0
   -9.6718   -1.1415  -15.1610 O   0  0  0  0  0  0
  -10.5817   -2.9861  -16.0650 O   0  0  0  0  0  0
  -10.0632   -3.7367   -7.9261 O   0  0  0  0  0  0
  -10.5267   -2.5747   -7.3320 C   0  0  0  0  0  0
  -10.6329   -1.4962   -7.9012 O   0  0  0  0  0  0
  -10.9015   -2.7816   -5.8586 C   0  0  0  0  0  0
  -10.9415   -1.4913   -4.9822 C   0  0  0  0  0  0
  -10.5155   -1.6054   -3.5071 C   0  0  0  0  0  0
   -9.4113   -2.5995   -3.2906 C   0  0  0  0  0  0
   -9.3901   -3.4657   -2.4269 O   0  0  0  0  0  0
   -8.4144   -2.4605   -4.1779 O   0  0  0  0  0  0
  -10.1936   -0.2922   -5.5781 C   0  0  0  0  0  0
  -10.7223    0.7840   -5.7752 O   0  0  0  0  0  0
   -8.8708   -0.4737   -5.7743 O   0  0  0  0  0  0
   -5.6421  -10.4754  -16.7912 H   0  0  0  0  0  0
   -5.8098  -11.1562  -18.2504 H   0  0  0  0  0  0
   -7.9241   -8.0490  -19.7467 H   0  0  0  0  0  0
  -10.8864  -12.4794  -19.3147 H   0  0  0  0  0  0
  -11.7129   -8.1673  -15.2345 H   0  0  0  0  0  0
  -11.7369   -0.5341  -11.0462 H   0  0  0  0  0  0
  -10.7697   -3.9369  -15.8668 H   0  0  0  0  0  0
   -7.7533   -3.1538   -3.9692 H   0  0  0  0  0  0
   -8.5929   -0.5535   -6.7137 H   0  0  0  0  0  0
  1  2  1  0  0  0
  2  3  1  0  0  0
  3  4  1  0  0  0
  4  5  1  0  0  0
  5  6  1  0  0  0
  5  7  1  0  0  0
  7  8  1  0  0  0
  7 39  1  0  0  0
  8  9  1  0  0  0
  8 27  1  0  0  0
  9 10  1  0  0  0
 10 11  1  0  0  0
 10 12  1  0  0  0
 12 13  1  0  0  0
 13 14  1  0  0  0
 13 26  1  0  0  0
 14 15  1  0  0  0
 15 16  1  0  0  0
 16 17  1  0  0  0
 17 18  1  0  0  0
 18 19  1  0  0  0
 18 25  1  0  0  0
 19 20  1  0  0  0
 20 21  1  0  0  0
 20 24  1  0  0  0
 21 22  1  0  0  0
 21 23  1  0  0  0
 23 51  1  0  0  0
 23 52  1  0  0  0
 24 53  1  0  0  0
 25 54  1  0  0  0
 26 55  1  0  0  0
 27 28  1  0  0  0
 28 29  2  0  0  0
 28 30  1  0  0  0
 30 31  1  0  0  0
 31 32  1  0  0  0
 31 36  1  0  0  0
 32 33  1  0  0  0
 33 34  2  0  0  0
 33 35  1  0  0  0
 35 56  1  0  0  0
 36 37  2  0  0  0
 36 38  1  0  0  0
 38 57  1  0  0  0
 39 40  1  0  0  0
 40 41  2  0  0  0
 40 42  1  0  0  0
 42 43  1  0  0  0
 43 44  1  0  0  0
 43 48  1  0  0  0
 44 45  1  0  0  0
 45 46  2  0  0  0
 45 47  1  0  0  0
 47 58  1  0  0  0
 48 49  2  0  0  0
 48 50  1  0  0  0
 50 59  1  0  0  0
M  END
>  <AUTHOR>
    GENERATED BY OPEN BABEL 2.4.1

>  <CHROM.1>
67.91716054,62.54887658,72.35168926,-170.81706295,159.53017828,86.60262334
-162.81258094,-51.16258309,151.51517188,-172.92720795,-61.90653718,174.51147736
158.52614189,-179.34710246,169.57867584,34.38735353,71.04445804,-72.62900999
175.92649330,100.25630800,-143.20911212,178.98025774,-154.26264314,37.12399266
72.40916989,33.88918961,58.59471600,-26.18168534,72.07932889,-175.09865955
-4.33110374,38.52391062,159.08326907,-145.89825846,34.59639881,123.96761291
-132.56204075,-179.12394730,108.74783131,-9.31974455,-4.75863698,-11.40330145
1.62480154,-1.25477036,1.01189537

>  <COMPND>
    UNNAMED

>  <MASTER>
        0    0    0    0    0    0    0    0  109    0  109    0

>  <Name>
FB1.pdb

>  <RI>
0

>  <Rbt.Current_Directory>
/home/fc/tossine/FB1_39/p3/0_clust04

>  <Rbt.Executable>
rbdock/0.1.0

>  <Rbt.Library>
librxdock.so/0.1.0

>  <Rbt.Parameter_File>
/cluster/rxdock/data/scripts/dock.prm

>  <Rbt.Receptor>
rx_0.prm

>  <SCORE>
27.9533

>  <SCORE.INTER>
4.59863

>  <SCORE.INTER.CONST>
1

>  <SCORE.INTER.POLAR>
-3.29198

>  <SCORE.INTER.REPUL>
0.821497

>  <SCORE.INTER.ROT>
32

>  <SCORE.INTER.VDW>
-25.7161

>  <SCORE.INTER.norm>
0.0919727

>  <SCORE.INTRA>
23.3547

>  <SCORE.INTRA.DIHEDRAL>
33.6699

>  <SCORE.INTRA.DIHEDRAL.0>
47.3121

>  <SCORE.INTRA.POLAR>
1.47808

>  <SCORE.INTRA.POLAR.0>
-1.47808

>  <SCORE.INTRA.REPUL>
0.135352

>  <SCORE.INTRA.REPUL.0>
0

>  <SCORE.INTRA.VDW>
0.817507

>  <SCORE.INTRA.VDW.0>
-2.78316

>  <SCORE.INTRA.norm>
0.467093

>  <SCORE.RESTR>
0

>  <SCORE.RESTR.CAVITY>
0

>  <SCORE.RESTR.norm>
0

>  <SCORE.SYSTEM>
0

>  <SCORE.SYSTEM.CONST>
0

>  <SCORE.SYSTEM.DIHEDRAL>
0

>  <SCORE.SYSTEM.norm>
0

>  <SCORE.heavy>
50

>  <SCORE.norm>
0.559066

$$$$
