FB1.pdb
  RxDock  10062021013D
librxdock.so/0.1.0
 59 58  0  0  0  0  0  0  0  0999 V2000
  -11.4071   -0.6871  -15.9535 C   0  0  0  0  0  0
  -10.7275   -2.0379  -15.7416 C   0  0  0  0  0  0
  -11.1644   -2.6942  -14.4215 C   0  0  0  0  0  0
  -10.3204   -3.9360  -14.0403 C   0  0  0  0  0  0
   -8.7810   -3.6710  -13.8970 C   0  0  0  0  0  0
   -8.5533   -2.7990  -12.6407 C   0  0  0  0  0  0
   -7.9134   -4.9980  -13.8316 C   0  0  0  0  0  0
   -7.7886   -5.7138  -12.4039 C   0  0  0  0  0  0
   -8.9654   -5.8517  -11.3435 C   0  0  0  0  0  0
   -8.6195   -5.2774   -9.8363 C   0  0  0  0  0  0
   -7.3015   -5.8951   -9.3724 C   0  0  0  0  0  0
   -8.5481   -3.6906   -9.6878 C   0  0  0  0  0  0
   -7.2740   -2.8914   -9.0907 C   0  0  0  0  0  0
   -7.0757   -2.6543   -7.5543 C   0  0  0  0  0  0
   -8.2942   -2.9777   -6.5746 C   0  0  0  0  0  0
   -8.4049   -2.4502   -5.0899 C   0  0  0  0  0  0
   -9.6194   -2.8670   -4.2190 C   0  0  0  0  0  0
  -11.0229   -2.2812   -4.6389 C   0  0  0  0  0  0
  -11.1804   -0.7587   -4.5407 C   0  0  0  0  0  0
  -10.7931    0.1038   -5.7754 C   0  0  0  0  0  0
  -11.8892    0.8374   -6.6035 C   0  0  0  0  0  0
  -12.9742   -0.0370   -7.2162 C   0  0  0  0  0  0
  -12.4797    1.9453   -5.8286 N   0  0  0  0  0  0
   -9.9580    1.1610   -5.2379 O   0  0  0  0  0  0
  -11.2814   -2.6790   -5.9897 O   0  0  0  0  0  0
   -6.1303   -3.6586   -9.5027 O   0  0  0  0  0  0
   -7.3819   -7.0835  -12.6703 O   0  0  0  0  0  0
   -8.3025   -7.8993  -13.2469 C   0  0  0  0  0  0
   -9.5050   -7.7193  -13.2765 O   0  0  0  0  0  0
   -7.5778   -9.0214  -13.9376 C   0  0  0  0  0  0
   -8.5361  -10.0180  -14.6091 C   0  0  0  0  0  0
   -8.8116   -9.6713  -16.0779 C   0  0  0  0  0  0
   -9.3136  -10.8771  -16.8377 C   0  0  0  0  0  0
   -8.6802  -11.4273  -17.7320 O   0  0  0  0  0  0
  -10.5245  -11.2938  -16.4390 O   0  0  0  0  0  0
   -7.8540  -11.3897  -14.5123 C   0  0  0  0  0  0
   -6.6410  -11.5339  -14.5270 O   0  0  0  0  0  0
   -8.7017  -12.4263  -14.4594 O   0  0  0  0  0  0
   -8.3112   -5.9508  -14.8965 O   0  0  0  0  0  0
   -7.5230   -6.0366  -16.0321 C   0  0  0  0  0  0
   -6.4359   -6.5968  -16.0845 O   0  0  0  0  0  0
   -8.1649   -5.3447  -17.2418 C   0  0  0  0  0  0
   -9.5239   -5.9423  -17.7217 C   0  0  0  0  0  0
  -10.7639   -5.7221  -16.8361 C   0  0  0  0  0  0
  -11.5213   -6.9892  -16.5618 C   0  0  0  0  0  0
  -11.0940   -8.1245  -16.7205 O   0  0  0  0  0  0
  -12.7554   -6.7573  -16.0889 O   0  0  0  0  0  0
   -9.9174   -5.5618  -19.1545 C   0  0  0  0  0  0
  -10.4819   -4.5216  -19.4300 O   0  0  0  0  0  0
   -9.4996   -6.4125  -20.1153 O   0  0  0  0  0  0
  -11.7799    2.6753   -5.7029 H   0  0  0  0  0  0
  -12.6840    1.6108   -4.8843 H   0  0  0  0  0  0
   -9.0863    0.7366   -5.0919 H   0  0  0  0  0  0
  -12.2195   -2.4999   -6.1853 H   0  0  0  0  0  0
   -5.3312   -3.1714   -9.2410 H   0  0  0  0  0  0
  -10.8902  -12.0494  -16.9378 H   0  0  0  0  0  0
   -8.2673  -13.3140  -14.5054 H   0  0  0  0  0  0
  -13.1312   -7.6291  -15.8440 H   0  0  0  0  0  0
   -9.6790   -6.1243  -21.0378 H   0  0  0  0  0  0
  1  2  1  0  0  0
  2  3  1  0  0  0
  3  4  1  0  0  0
  4  5  1  0  0  0
  5  6  1  0  0  0
  5  7  1  0  0  0
  7  8  1  0  0  0
  7 39  1  0  0  0
  8  9  1  0  0  0
  8 27  1  0  0  0
  9 10  1  0  0  0
 10 11  1  0  0  0
 10 12  1  0  0  0
 12 13  1  0  0  0
 13 14  1  0  0  0
 13 26  1  0  0  0
 14 15  1  0  0  0
 15 16  1  0  0  0
 16 17  1  0  0  0
 17 18  1  0  0  0
 18 19  1  0  0  0
 18 25  1  0  0  0
 19 20  1  0  0  0
 20 21  1  0  0  0
 20 24  1  0  0  0
 21 22  1  0  0  0
 21 23  1  0  0  0
 23 51  1  0  0  0
 23 52  1  0  0  0
 24 53  1  0  0  0
 25 54  1  0  0  0
 26 55  1  0  0  0
 27 28  1  0  0  0
 28 29  2  0  0  0
 28 30  1  0  0  0
 30 31  1  0  0  0
 31 32  1  0  0  0
 31 36  1  0  0  0
 32 33  1  0  0  0
 33 34  2  0  0  0
 33 35  1  0  0  0
 35 56  1  0  0  0
 36 37  2  0  0  0
 36 38  1  0  0  0
 38 57  1  0  0  0
 39 40  1  0  0  0
 40 41  2  0  0  0
 40 42  1  0  0  0
 42 43  1  0  0  0
 43 44  1  0  0  0
 43 48  1  0  0  0
 44 45  1  0  0  0
 45 46  2  0  0  0
 45 47  1  0  0  0
 47 58  1  0  0  0
 48 49  2  0  0  0
 48 50  1  0  0  0
 50 59  1  0  0  0
M  END
>  <AUTHOR>
    GENERATED BY OPEN BABEL 2.4.1

>  <CHROM.1>
-169.70638267,57.99735547,69.29919469,-83.08543337,39.16487779,101.06182522
-125.58952865,-70.20461570,-51.42169775,-125.06437528,-85.62730425,-11.27888374
174.57846210,-163.08316615,-178.18756893,-68.58332578,-64.24756575,88.95699989
167.22169115,110.45323366,-58.52590215,77.62609750,68.17390937,-18.76311835
179.17636950,92.50188447,159.32657973,-31.44548693,-113.07385087,177.58608977
173.09154510,75.25087123,-62.47976258,71.21160056,-130.04802166,-84.03235086
16.61563354,-173.63081746,-174.49659419,-9.34154049,-5.23146016,-12.53305943
1.76452549,-1.14384354,1.13127721

>  <COMPND>
    UNNAMED

>  <MASTER>
        0    0    0    0    0    0    0    0  109    0  109    0

>  <Name>
FB1.pdb

>  <RI>
0

>  <Rbt.Current_Directory>
/home/fc/tossine/FB1_39/p3/0_clust04

>  <Rbt.Executable>
rbdock/0.1.0

>  <Rbt.Library>
librxdock.so/0.1.0

>  <Rbt.Parameter_File>
/cluster/rxdock/data/scripts/dock.prm

>  <Rbt.Receptor>
rx_1.prm

>  <SCORE>
47.8117

>  <SCORE.INTER>
19.2194

>  <SCORE.INTER.CONST>
1

>  <SCORE.INTER.POLAR>
-1.0643

>  <SCORE.INTER.REPUL>
1.23015

>  <SCORE.INTER.ROT>
32

>  <SCORE.INTER.VDW>
-20.7128

>  <SCORE.INTER.norm>
0.384387

>  <SCORE.INTRA>
27.6377

>  <SCORE.INTRA.DIHEDRAL>
40.8312

>  <SCORE.INTRA.DIHEDRAL.0>
47.3121

>  <SCORE.INTRA.POLAR>
1.47808

>  <SCORE.INTRA.POLAR.0>
-1.47808

>  <SCORE.INTRA.REPUL>
0

>  <SCORE.INTRA.REPUL.0>
0

>  <SCORE.INTRA.VDW>
2.1966

>  <SCORE.INTRA.VDW.0>
-2.78316

>  <SCORE.INTRA.norm>
0.552754

>  <SCORE.RESTR>
0.954701

>  <SCORE.RESTR.CAVITY>
0.954701

>  <SCORE.RESTR.norm>
0.019094

>  <SCORE.SYSTEM>
0

>  <SCORE.SYSTEM.CONST>
0

>  <SCORE.SYSTEM.DIHEDRAL>
0

>  <SCORE.SYSTEM.norm>
0

>  <SCORE.heavy>
50

>  <SCORE.norm>
0.956235

$$$$
