FB1.pdb
  RxDock  10062022193D
librxdock.so/0.1.0
 59 58  0  0  0  0  0  0  0  0999 V2000
  -12.3877    1.8631  -12.1155 C   0  0  0  0  0  0
  -13.0760    1.1870  -10.9321 C   0  0  0  0  0  0
  -12.9171   -0.3417  -10.9784 C   0  0  0  0  0  0
  -11.6236   -0.8492  -10.2936 C   0  0  0  0  0  0
  -11.5651   -2.3985  -10.0558 C   0  0  0  0  0  0
  -11.3197   -3.0897  -11.4170 C   0  0  0  0  0  0
  -10.4713   -2.8351   -8.9924 C   0  0  0  0  0  0
   -8.9364   -2.6597   -9.4162 C   0  0  0  0  0  0
   -7.7442   -2.3250   -8.4187 C   0  0  0  0  0  0
   -6.3451   -3.1531   -8.6981 C   0  0  0  0  0  0
   -5.2323   -2.5206   -7.8640 C   0  0  0  0  0  0
   -6.3914   -4.7241   -8.4249 C   0  0  0  0  0  0
   -5.2478   -5.7630   -8.9059 C   0  0  0  0  0  0
   -4.3937   -6.6003   -7.8931 C   0  0  0  0  0  0
   -3.1796   -5.8787   -7.1485 C   0  0  0  0  0  0
   -3.2445   -4.4169   -6.5539 C   0  0  0  0  0  0
   -3.8492   -4.1916   -5.1429 C   0  0  0  0  0  0
   -5.0984   -5.0765   -4.7611 C   0  0  0  0  0  0
   -5.5743   -4.9881   -3.3057 C   0  0  0  0  0  0
   -4.6137   -4.3670   -2.2523 C   0  0  0  0  0  0
   -4.3670   -2.8298   -2.2153 C   0  0  0  0  0  0
   -5.2231   -2.0295   -1.2436 C   0  0  0  0  0  0
   -2.9348   -2.5318   -2.0250 N   0  0  0  0  0  0
   -5.2193   -4.6811   -0.9723 O   0  0  0  0  0  0
   -6.1829   -4.7026   -5.6177 O   0  0  0  0  0  0
   -5.9439   -6.7356   -9.7034 O   0  0  0  0  0  0
   -8.5420   -3.9111  -10.0413 O   0  0  0  0  0  0
   -8.2355   -3.8701  -11.3641 C   0  0  0  0  0  0
   -8.3149   -2.8983  -12.0912 O   0  0  0  0  0  0
   -7.6802   -5.2087  -11.7657 C   0  0  0  0  0  0
   -7.7969   -5.4671  -13.2764 C   0  0  0  0  0  0
   -7.5033   -6.9261  -13.6484 C   0  0  0  0  0  0
   -7.2999   -7.7732  -12.4137 C   0  0  0  0  0  0
   -8.2206   -8.2089  -11.7309 O   0  0  0  0  0  0
   -6.0095   -8.0074  -12.1330 O   0  0  0  0  0  0
   -9.2405   -5.1087  -13.6553 C   0  0  0  0  0  0
   -9.5725   -3.9985  -14.0421 O   0  0  0  0  0  0
  -10.1215   -6.1032  -13.4799 O   0  0  0  0  0  0
  -10.7505   -2.2409   -7.6624 O   0  0  0  0  0  0
  -11.1132   -3.0852   -6.6263 C   0  0  0  0  0  0
  -11.8642   -4.0451   -6.7407 O   0  0  0  0  0  0
  -10.4642   -2.6871   -5.2942 C   0  0  0  0  0  0
  -11.2828   -1.6940   -4.4119 C   0  0  0  0  0  0
  -10.6510   -0.3291   -4.0829 C   0  0  0  0  0  0
  -10.0216    0.3290   -5.2768 C   0  0  0  0  0  0
   -9.1397   -0.1524   -5.9746 O   0  0  0  0  0  0
  -10.5472    1.5365   -5.5337 O   0  0  0  0  0  0
  -12.7083   -1.4251   -4.9096 C   0  0  0  0  0  0
  -13.0250   -0.4028   -5.4851 O   0  0  0  0  0  0
  -13.5759   -2.4484   -4.7629 O   0  0  0  0  0  0
   -2.3826   -3.1612   -2.6059 H   0  0  0  0  0  0
   -2.6772   -2.7665   -1.0637 H   0  0  0  0  0  0
   -4.5654   -4.3758   -0.3085 H   0  0  0  0  0  0
   -6.8589   -5.4039   -5.5764 H   0  0  0  0  0  0
   -5.3091   -7.1197  -10.3312 H   0  0  0  0  0  0
   -5.3680   -7.5226  -12.6870 H   0  0  0  0  0  0
  -11.0387   -5.8978  -13.7888 H   0  0  0  0  0  0
   -9.8520    2.0543   -5.9919 H   0  0  0  0  0  0
  -14.4945   -2.2659   -5.0614 H   0  0  0  0  0  0
  1  2  1  0  0  0
  2  3  1  0  0  0
  3  4  1  0  0  0
  4  5  1  0  0  0
  5  6  1  0  0  0
  5  7  1  0  0  0
  7  8  1  0  0  0
  7 39  1  0  0  0
  8  9  1  0  0  0
  8 27  1  0  0  0
  9 10  1  0  0  0
 10 11  1  0  0  0
 10 12  1  0  0  0
 12 13  1  0  0  0
 13 14  1  0  0  0
 13 26  1  0  0  0
 14 15  1  0  0  0
 15 16  1  0  0  0
 16 17  1  0  0  0
 17 18  1  0  0  0
 18 19  1  0  0  0
 18 25  1  0  0  0
 19 20  1  0  0  0
 20 21  1  0  0  0
 20 24  1  0  0  0
 21 22  1  0  0  0
 21 23  1  0  0  0
 23 51  1  0  0  0
 23 52  1  0  0  0
 24 53  1  0  0  0
 25 54  1  0  0  0
 26 55  1  0  0  0
 27 28  1  0  0  0
 28 29  2  0  0  0
 28 30  1  0  0  0
 30 31  1  0  0  0
 31 32  1  0  0  0
 31 36  1  0  0  0
 32 33  1  0  0  0
 33 34  2  0  0  0
 33 35  1  0  0  0
 35 56  1  0  0  0
 36 37  2  0  0  0
 36 38  1  0  0  0
 38 57  1  0  0  0
 39 40  1  0  0  0
 40 41  2  0  0  0
 40 42  1  0  0  0
 42 43  1  0  0  0
 43 44  1  0  0  0
 43 48  1  0  0  0
 44 45  1  0  0  0
 45 46  2  0  0  0
 45 47  1  0  0  0
 47 58  1  0  0  0
 48 49  2  0  0  0
 48 50  1  0  0  0
 50 59  1  0  0  0
M  END
>  <AUTHOR>
    GENERATED BY OPEN BABEL 2.4.1

>  <CHROM.1>
87.55438688,167.92901733,73.62960851,-68.97516561,148.05017642,112.71920017
138.93816384,114.16295971,168.35958559,167.24560970,117.27772673,-78.69349757
154.25780413,42.04885479,83.30341231,-37.69498868,172.01983600,-15.89091854
163.47735189,73.87285316,95.11796040,174.03020276,42.18218976,-3.42957558
158.21313468,-168.21720543,5.38069584,92.06564544,79.59480500,6.94219011
-175.49599985,-40.11280485,90.49635355,-118.97009397,45.05419213,-103.51722468
-57.40528569,153.26605645,178.50321325,-8.33855421,-3.42391453,-8.02337749
2.12915121,0.59688369,-1.96434043

>  <COMPND>
    UNNAMED

>  <MASTER>
        0    0    0    0    0    0    0    0  109    0  109    0

>  <Name>
FB1.pdb

>  <RI>
0

>  <Rbt.Current_Directory>
/home/fc/tossine/FB1_39/p3/0_clust04

>  <Rbt.Executable>
rbdock/0.1.0

>  <Rbt.Library>
librxdock.so/0.1.0

>  <Rbt.Parameter_File>
/cluster/rxdock/data/scripts/dock.prm

>  <Rbt.Receptor>
rx_3.prm

>  <SCORE>
51.3751

>  <SCORE.INTER>
19.0566

>  <SCORE.INTER.CONST>
1

>  <SCORE.INTER.POLAR>
-3.19455

>  <SCORE.INTER.REPUL>
1.66524

>  <SCORE.INTER.ROT>
32

>  <SCORE.INTER.VDW>
-15.8081

>  <SCORE.INTER.norm>
0.381133

>  <SCORE.INTRA>
26.584

>  <SCORE.INTRA.DIHEDRAL>
43.6894

>  <SCORE.INTRA.DIHEDRAL.0>
47.3121

>  <SCORE.INTRA.POLAR>
1.0916

>  <SCORE.INTRA.POLAR.0>
-1.47808

>  <SCORE.INTRA.REPUL>
0

>  <SCORE.INTRA.REPUL.0>
0

>  <SCORE.INTRA.VDW>
1.02789

>  <SCORE.INTRA.VDW.0>
-2.78316

>  <SCORE.INTRA.norm>
0.53168

>  <SCORE.RESTR>
5.73448

>  <SCORE.RESTR.CAVITY>
5.73448

>  <SCORE.RESTR.norm>
0.11469

>  <SCORE.SYSTEM>
0

>  <SCORE.SYSTEM.CONST>
0

>  <SCORE.SYSTEM.DIHEDRAL>
0

>  <SCORE.SYSTEM.norm>
0

>  <SCORE.heavy>
50

>  <SCORE.norm>
1.0275

$$$$
