FB1.pdb
  RxDock  10062022223D
librxdock.so/0.1.0
 59 58  0  0  0  0  0  0  0  0999 V2000
  -11.1802   -1.9314  -10.0256 C   0  0  0  0  0  0
  -10.4767   -2.8809   -9.0587 C   0  0  0  0  0  0
  -10.2559   -2.2315   -7.6825 C   0  0  0  0  0  0
   -9.5855   -3.1764   -6.6542 C   0  0  0  0  0  0
   -8.0282   -3.3049   -6.7910 C   0  0  0  0  0  0
   -7.5712   -4.5460   -5.9901 C   0  0  0  0  0  0
   -7.5291   -3.3848   -8.2951 C   0  0  0  0  0  0
   -6.1600   -2.6310   -8.6465 C   0  0  0  0  0  0
   -5.7694   -1.1688   -8.1591 C   0  0  0  0  0  0
   -5.8608   -0.9268   -6.5298 C   0  0  0  0  0  0
   -7.2710   -0.4479   -6.1889 C   0  0  0  0  0  0
   -5.4833   -2.1753   -5.6113 C   0  0  0  0  0  0
   -5.1125   -2.0668   -4.0399 C   0  0  0  0  0  0
   -5.1532   -3.3047   -3.0797 C   0  0  0  0  0  0
   -6.0698   -4.5476   -3.4848 C   0  0  0  0  0  0
   -6.9127   -5.4021   -2.4581 C   0  0  0  0  0  0
   -7.9382   -4.6935   -1.5341 C   0  0  0  0  0  0
   -7.6519   -4.7561    0.0162 C   0  0  0  0  0  0
   -6.2048   -4.4925    0.4511 C   0  0  0  0  0  0
   -5.7135   -3.0189    0.5235 C   0  0  0  0  0  0
   -5.9082   -2.0593   -0.6876 C   0  0  0  0  0  0
   -7.2981   -1.4639   -0.8637 C   0  0  0  0  0  0
   -4.8778   -1.0035   -0.6926 N   0  0  0  0  0  0
   -6.4849   -2.4266    1.5995 O   0  0  0  0  0  0
   -8.5016   -3.8012    0.6612 O   0  0  0  0  0  0
   -3.7479   -1.6154   -4.0126 O   0  0  0  0  0  0
   -5.0900   -3.4760   -8.1428 O   0  0  0  0  0  0
   -4.6346   -4.4531   -8.9694 C   0  0  0  0  0  0
   -5.2333   -4.9346   -9.9123 O   0  0  0  0  0  0
   -3.2162   -4.7760   -8.5883 C   0  0  0  0  0  0
   -3.0516   -5.0223   -7.0801 C   0  0  0  0  0  0
   -3.3372   -3.7680   -6.2442 C   0  0  0  0  0  0
   -2.3604   -2.6620   -6.5697 C   0  0  0  0  0  0
   -1.3958   -2.3805   -5.8670 O   0  0  0  0  0  0
   -2.6478   -2.0132   -7.7078 O   0  0  0  0  0  0
   -4.0510   -6.1309   -6.7221 C   0  0  0  0  0  0
   -4.6689   -6.7683   -7.5614 O   0  0  0  0  0  0
   -4.2292   -6.3111   -5.4062 O   0  0  0  0  0  0
   -7.5335   -4.7840   -8.7871 O   0  0  0  0  0  0
   -7.6992   -5.0050  -10.1442 C   0  0  0  0  0  0
   -7.8697   -4.1245  -10.9774 O   0  0  0  0  0  0
   -7.6453   -6.4956  -10.5039 C   0  0  0  0  0  0
   -7.6672   -6.8257  -12.0288 C   0  0  0  0  0  0
   -8.9566   -7.4231  -12.6211 C   0  0  0  0  0  0
  -10.1904   -6.6646  -12.2250 C   0  0  0  0  0  0
  -11.3374   -7.0855  -12.2866 O   0  0  0  0  0  0
   -9.9111   -5.4374  -11.7599 O   0  0  0  0  0  0
   -7.2463   -5.6649  -12.9385 C   0  0  0  0  0  0
   -6.1128   -5.2280  -12.9697 O   0  0  0  0  0  0
   -8.1954   -5.2224  -13.7898 O   0  0  0  0  0  0
   -4.9170   -0.4944    0.1893 H   0  0  0  0  0  0
   -5.1211   -0.3130   -1.4064 H   0  0  0  0  0  0
   -6.1567   -2.8688    2.4107 H   0  0  0  0  0  0
   -8.3387   -3.8487    1.6212 H   0  0  0  0  0  0
   -3.4915   -1.4891   -3.0837 H   0  0  0  0  0  0
   -3.5183   -2.2218   -8.0979 H   0  0  0  0  0  0
   -4.9518   -6.9454   -5.1733 H   0  0  0  0  0  0
  -10.7451   -5.0812  -11.3872 H   0  0  0  0  0  0
   -7.9189   -4.4880  -14.3817 H   0  0  0  0  0  0
  1  2  1  0  0  0
  2  3  1  0  0  0
  3  4  1  0  0  0
  4  5  1  0  0  0
  5  6  1  0  0  0
  5  7  1  0  0  0
  7  8  1  0  0  0
  7 39  1  0  0  0
  8  9  1  0  0  0
  8 27  1  0  0  0
  9 10  1  0  0  0
 10 11  1  0  0  0
 10 12  1  0  0  0
 12 13  1  0  0  0
 13 14  1  0  0  0
 13 26  1  0  0  0
 14 15  1  0  0  0
 15 16  1  0  0  0
 16 17  1  0  0  0
 17 18  1  0  0  0
 18 19  1  0  0  0
 18 25  1  0  0  0
 19 20  1  0  0  0
 20 21  1  0  0  0
 20 24  1  0  0  0
 21 22  1  0  0  0
 21 23  1  0  0  0
 23 51  1  0  0  0
 23 52  1  0  0  0
 24 53  1  0  0  0
 25 54  1  0  0  0
 26 55  1  0  0  0
 27 28  1  0  0  0
 28 29  2  0  0  0
 28 30  1  0  0  0
 30 31  1  0  0  0
 31 32  1  0  0  0
 31 36  1  0  0  0
 32 33  1  0  0  0
 33 34  2  0  0  0
 33 35  1  0  0  0
 35 56  1  0  0  0
 36 37  2  0  0  0
 36 38  1  0  0  0
 38 57  1  0  0  0
 39 40  1  0  0  0
 40 41  2  0  0  0
 40 42  1  0  0  0
 42 43  1  0  0  0
 43 44  1  0  0  0
 43 48  1  0  0  0
 44 45  1  0  0  0
 45 46  2  0  0  0
 45 47  1  0  0  0
 47 58  1  0  0  0
 48 49  2  0  0  0
 48 50  1  0  0  0
 50 59  1  0  0  0
M  END
>  <AUTHOR>
    GENERATED BY OPEN BABEL 2.4.1

>  <CHROM.1>
178.12292955,80.42962577,-164.35144761,142.47760090,-44.46619387,152.49532385
53.65164212,86.95425155,-89.68630255,162.55964365,161.85629706,-22.92980832
177.06392449,-141.87923441,55.79121239,-116.14241574,44.26385270,79.45200841
178.99491928,-51.36123294,78.83020650,68.25460923,-57.28241764,-21.27963679
49.61462350,-64.98653590,-62.49074857,9.40317455,-101.42698984,10.15278126
172.85924767,-1.46557924,-173.58967836,-107.09723327,48.66831617,67.68048993
-161.78342357,-170.50590027,-179.06899226,-6.54368798,-3.90776588,-6.72037735
1.78549037,-0.12145498,-1.77365663

>  <COMPND>
    UNNAMED

>  <MASTER>
        0    0    0    0    0    0    0    0  109    0  109    0

>  <Name>
FB1.pdb

>  <RI>
0

>  <Rbt.Current_Directory>
/home/fc/tossine/FB1_39/p3/0_clust04

>  <Rbt.Executable>
rbdock/0.1.0

>  <Rbt.Library>
librxdock.so/0.1.0

>  <Rbt.Parameter_File>
/cluster/rxdock/data/scripts/dock.prm

>  <Rbt.Receptor>
rx_3.prm

>  <SCORE>
43.8052

>  <SCORE.INTER>
13.4758

>  <SCORE.INTER.CONST>
1

>  <SCORE.INTER.POLAR>
-1.93379

>  <SCORE.INTER.REPUL>
0.695792

>  <SCORE.INTER.ROT>
32

>  <SCORE.INTER.VDW>
-20.8283

>  <SCORE.INTER.norm>
0.269515

>  <SCORE.INTRA>
19.589

>  <SCORE.INTRA.DIHEDRAL>
12.9455

>  <SCORE.INTRA.DIHEDRAL.0>
47.3121

>  <SCORE.INTRA.POLAR>
0.68504

>  <SCORE.INTRA.POLAR.0>
-1.47808

>  <SCORE.INTRA.REPUL>
0

>  <SCORE.INTRA.REPUL.0>
0

>  <SCORE.INTRA.VDW>
10.7871

>  <SCORE.INTRA.VDW.0>
-2.78316

>  <SCORE.INTRA.norm>
0.39178

>  <SCORE.RESTR>
10.7404

>  <SCORE.RESTR.CAVITY>
10.7404

>  <SCORE.RESTR.norm>
0.214809

>  <SCORE.SYSTEM>
0

>  <SCORE.SYSTEM.CONST>
0

>  <SCORE.SYSTEM.DIHEDRAL>
0

>  <SCORE.SYSTEM.norm>
0

>  <SCORE.heavy>
50

>  <SCORE.norm>
0.876105

$$$$
