FB1.pdb
  RxDock  10062022243D
librxdock.so/0.1.0
 59 58  0  0  0  0  0  0  0  0999 V2000
  -11.9711   -1.4920   -5.5974 C   0  0  0  0  0  0
  -10.5870   -0.9376   -5.9265 C   0  0  0  0  0  0
   -9.4776   -1.6945   -5.1778 C   0  0  0  0  0  0
   -9.2461   -3.1322   -5.7061 C   0  0  0  0  0  0
   -7.7460   -3.5888   -5.7461 C   0  0  0  0  0  0
   -7.6986   -5.0593   -6.2215 C   0  0  0  0  0  0
   -6.8280   -2.6684   -6.6560 C   0  0  0  0  0  0
   -7.1205   -2.6825   -8.2310 C   0  0  0  0  0  0
   -6.4650   -3.6873   -9.2744 C   0  0  0  0  0  0
   -5.8434   -5.0682   -8.6201 C   0  0  0  0  0  0
   -6.4913   -6.2668   -9.3112 C   0  0  0  0  0  0
   -4.2558   -5.2165   -8.6687 C   0  0  0  0  0  0
   -3.2215   -4.0238   -8.3132 C   0  0  0  0  0  0
   -1.6933   -4.1088   -8.6501 C   0  0  0  0  0  0
   -0.8866   -2.7466   -8.8575 C   0  0  0  0  0  0
    0.2552   -2.2346   -7.8939 C   0  0  0  0  0  0
    0.8326   -0.8069   -8.0835 C   0  0  0  0  0  0
    2.2311   -0.5167   -7.4133 C   0  0  0  0  0  0
    2.9037    0.8088   -7.7915 C   0  0  0  0  0  0
    4.3958    1.0152   -7.4050 C   0  0  0  0  0  0
    5.4096    1.5868   -8.4398 C   0  0  0  0  0  0
    6.1223    0.5715   -9.3221 C   0  0  0  0  0  0
    4.7873    2.6481   -9.2540 N   0  0  0  0  0  0
    4.3659    1.9895   -6.3309 O   0  0  0  0  0  0
    2.0552   -0.5483   -5.9928 O   0  0  0  0  0  0
   -3.7045   -2.8852   -9.0459 O   0  0  0  0  0  0
   -8.5509   -2.8950   -8.3767 O   0  0  0  0  0  0
   -9.1082   -2.5475   -9.5658 C   0  0  0  0  0  0
   -8.5440   -1.9940  -10.4903 O   0  0  0  0  0  0
  -10.5241   -3.0535   -9.5938 C   0  0  0  0  0  0
  -11.1608   -2.9490  -10.9889 C   0  0  0  0  0  0
  -11.7128   -4.2912  -11.4860 C   0  0  0  0  0  0
  -10.5946   -5.2277  -11.8810 C   0  0  0  0  0  0
  -10.3358   -5.5232  -13.0426 O   0  0  0  0  0  0
   -9.9055   -5.7080  -10.8354 O   0  0  0  0  0  0
  -12.3001   -1.9288  -10.8573 C   0  0  0  0  0  0
  -13.4664   -2.1960  -11.1038 O   0  0  0  0  0  0
  -11.9038   -0.7008  -10.4955 O   0  0  0  0  0  0
   -6.7536   -1.2880   -6.1184 O   0  0  0  0  0  0
   -5.5983   -0.8979   -5.4619 C   0  0  0  0  0  0
   -5.2145    0.2597   -5.3562 O   0  0  0  0  0  0
   -4.8338   -2.0884   -4.8681 C   0  0  0  0  0  0
   -5.2022   -2.4655   -3.3996 C   0  0  0  0  0  0
   -5.5643   -3.9313   -3.0983 C   0  0  0  0  0  0
   -7.0123   -4.1176   -2.7473 C   0  0  0  0  0  0
   -7.7210   -5.0459   -3.1113 O   0  0  0  0  0  0
   -7.4762   -3.1438   -1.9493 O   0  0  0  0  0  0
   -4.1712   -2.0291   -2.3513 C   0  0  0  0  0  0
   -3.2653   -1.2575   -2.5975 O   0  0  0  0  0  0
   -4.3952   -2.4753   -1.0975 O   0  0  0  0  0  0
    5.5060    3.3081   -9.5482 H   0  0  0  0  0  0
    4.1591    3.1913   -8.6576 H   0  0  0  0  0  0
    5.2782    1.9886   -5.9717 H   0  0  0  0  0  0
    1.8119    0.3481   -5.6964 H   0  0  0  0  0  0
   -4.3951   -2.4559   -8.5136 H   0  0  0  0  0  0
   -9.1105   -6.2271  -11.0634 H   0  0  0  0  0  0
  -12.6339   -0.0360  -10.4333 H   0  0  0  0  0  0
   -7.4362   -3.4886   -1.0323 H   0  0  0  0  0  0
   -5.3165   -2.7641   -0.9132 H   0  0  0  0  0  0
  1  2  1  0  0  0
  2  3  1  0  0  0
  3  4  1  0  0  0
  4  5  1  0  0  0
  5  6  1  0  0  0
  5  7  1  0  0  0
  7  8  1  0  0  0
  7 39  1  0  0  0
  8  9  1  0  0  0
  8 27  1  0  0  0
  9 10  1  0  0  0
 10 11  1  0  0  0
 10 12  1  0  0  0
 12 13  1  0  0  0
 13 14  1  0  0  0
 13 26  1  0  0  0
 14 15  1  0  0  0
 15 16  1  0  0  0
 16 17  1  0  0  0
 17 18  1  0  0  0
 18 19  1  0  0  0
 18 25  1  0  0  0
 19 20  1  0  0  0
 20 21  1  0  0  0
 20 24  1  0  0  0
 21 22  1  0  0  0
 21 23  1  0  0  0
 23 51  1  0  0  0
 23 52  1  0  0  0
 24 53  1  0  0  0
 25 54  1  0  0  0
 26 55  1  0  0  0
 27 28  1  0  0  0
 28 29  2  0  0  0
 28 30  1  0  0  0
 30 31  1  0  0  0
 31 32  1  0  0  0
 31 36  1  0  0  0
 32 33  1  0  0  0
 33 34  2  0  0  0
 33 35  1  0  0  0
 35 56  1  0  0  0
 36 37  2  0  0  0
 36 38  1  0  0  0
 38 57  1  0  0  0
 39 40  1  0  0  0
 40 41  2  0  0  0
 40 42  1  0  0  0
 42 43  1  0  0  0
 43 44  1  0  0  0
 43 48  1  0  0  0
 44 45  1  0  0  0
 45 46  2  0  0  0
 45 47  1  0  0  0
 47 58  1  0  0  0
 48 49  2  0  0  0
 48 50  1  0  0  0
 50 59  1  0  0  0
M  END
>  <AUTHOR>
    GENERATED BY OPEN BABEL 2.4.1

>  <CHROM.1>
71.11724614,141.72232083,177.02311445,-66.35916411,-89.02381005,104.28581727
20.12975673,160.49175686,124.24041516,43.81962960,-167.13661043,154.17386468
84.51865209,113.42636580,-171.58062912,-161.77837250,170.28482531,-167.43859797
-88.78659351,133.88275469,-89.29660699,169.29970275,150.96498578,-5.19610107
-169.18122542,125.22814565,-73.13592939,-120.90387810,-108.17221893,-172.79513089
178.46832813,155.15042717,-91.09509681,128.33591796,-111.22555540,12.25331566
139.98238318,-97.34736630,-19.72110823,-5.28614700,-2.33809594,-7.36001371
3.01532497,-0.25862984,-1.59506269

>  <COMPND>
    UNNAMED

>  <MASTER>
        0    0    0    0    0    0    0    0  109    0  109    0

>  <Name>
FB1.pdb

>  <RI>
0

>  <Rbt.Current_Directory>
/home/fc/tossine/FB1_39/p3/0_clust04

>  <Rbt.Executable>
rbdock/0.1.0

>  <Rbt.Library>
librxdock.so/0.1.0

>  <Rbt.Parameter_File>
/cluster/rxdock/data/scripts/dock.prm

>  <Rbt.Receptor>
rx_3.prm

>  <SCORE>
65.6815

>  <SCORE.INTER>
27.2531

>  <SCORE.INTER.CONST>
1

>  <SCORE.INTER.POLAR>
-1.08028

>  <SCORE.INTER.REPUL>
1.98642

>  <SCORE.INTER.ROT>
32

>  <SCORE.INTER.VDW>
-16.406

>  <SCORE.INTER.norm>
0.545063

>  <SCORE.INTRA>
34.8431

>  <SCORE.INTRA.DIHEDRAL>
59.9865

>  <SCORE.INTRA.DIHEDRAL.0>
47.3121

>  <SCORE.INTRA.POLAR>
1.47808

>  <SCORE.INTRA.POLAR.0>
-1.47808

>  <SCORE.INTRA.REPUL>
0

>  <SCORE.INTRA.REPUL.0>
0

>  <SCORE.INTRA.VDW>
-0.175581

>  <SCORE.INTRA.VDW.0>
-2.78316

>  <SCORE.INTRA.norm>
0.696863

>  <SCORE.RESTR>
3.58527

>  <SCORE.RESTR.CAVITY>
3.58527

>  <SCORE.RESTR.norm>
0.0717053

>  <SCORE.SYSTEM>
0

>  <SCORE.SYSTEM.CONST>
0

>  <SCORE.SYSTEM.DIHEDRAL>
0

>  <SCORE.SYSTEM.norm>
0

>  <SCORE.heavy>
50

>  <SCORE.norm>
1.31363

$$$$
