FB1.pdb
  RxDock  10062021053D
librxdock.so/0.1.0
 59 58  0  0  0  0  0  0  0  0999 V2000
   -5.7326  -13.0065  -17.5439 C   0  0  0  0  0  0
   -6.9423  -12.3031  -16.9332 C   0  0  0  0  0  0
   -6.5900  -10.8902  -16.4392 C   0  0  0  0  0  0
   -7.5655  -10.3510  -15.3634 C   0  0  0  0  0  0
   -7.1394   -8.9924  -14.7053 C   0  0  0  0  0  0
   -7.2288   -7.8836  -15.7792 C   0  0  0  0  0  0
   -7.9963   -8.6128  -13.4249 C   0  0  0  0  0  0
   -7.5005   -7.3540  -12.5671 C   0  0  0  0  0  0
   -6.0056   -6.8150  -12.5131 C   0  0  0  0  0  0
   -5.7073   -5.6964  -11.3380 C   0  0  0  0  0  0
   -6.6740   -4.5280  -11.5239 C   0  0  0  0  0  0
   -5.7841   -6.2199   -9.8331 C   0  0  0  0  0  0
   -5.7216   -5.2581   -8.5332 C   0  0  0  0  0  0
   -7.0109   -4.7512   -7.8004 C   0  0  0  0  0  0
   -6.8481   -4.0698   -6.3657 C   0  0  0  0  0  0
   -6.5717   -4.8661   -5.0299 C   0  0  0  0  0  0
   -6.3340   -4.0859   -3.7100 C   0  0  0  0  0  0
   -7.2546   -2.8298   -3.4573 C   0  0  0  0  0  0
   -8.7594   -3.1027   -3.3409 C   0  0  0  0  0  0
   -9.7472   -2.0318   -3.8846 C   0  0  0  0  0  0
   -9.8919   -1.7941   -5.4169 C   0  0  0  0  0  0
  -10.9012   -0.7386   -5.8465 C   0  0  0  0  0  0
   -8.5761   -1.5489   -6.0372 N   0  0  0  0  0  0
  -11.0551   -2.4835   -3.4496 O   0  0  0  0  0  0
   -6.8132   -2.1938   -2.2529 O   0  0  0  0  0  0
   -5.0029   -6.0169   -7.5463 O   0  0  0  0  0  0
   -8.2769   -6.2158  -13.0298 O   0  0  0  0  0  0
   -9.3645   -5.8704  -12.2929 C   0  0  0  0  0  0
   -9.5447   -6.1193  -11.1160 O   0  0  0  0  0  0
  -10.2742   -5.0343  -13.1501 C   0  0  0  0  0  0
   -9.5774   -4.5135  -14.4173 C   0  0  0  0  0  0
  -10.2002   -5.0718  -15.7033 C   0  0  0  0  0  0
   -9.2889   -4.8551  -16.8889 C   0  0  0  0  0  0
   -8.1180   -5.2180  -16.9197 O   0  0  0  0  0  0
   -9.8845   -4.2259  -17.9127 O   0  0  0  0  0  0
   -9.7250   -2.9861  -14.3823 C   0  0  0  0  0  0
  -10.3002   -2.3515  -15.2534 O   0  0  0  0  0  0
   -9.1260   -2.3963  -13.3386 O   0  0  0  0  0  0
   -9.4400   -8.5257  -13.7534 O   0  0  0  0  0  0
  -10.2788   -9.5346  -13.3099 C   0  0  0  0  0  0
  -11.3992   -9.3568  -12.8499 O   0  0  0  0  0  0
   -9.6480  -10.9255  -13.4577 C   0  0  0  0  0  0
  -10.1251  -11.7584  -14.6878 C   0  0  0  0  0  0
  -10.2457  -11.0406  -16.0445 C   0  0  0  0  0  0
  -10.9175   -9.7017  -15.9421 C   0  0  0  0  0  0
  -11.9356   -9.4609  -15.3080 O   0  0  0  0  0  0
  -10.2645   -8.7466  -16.6215 O   0  0  0  0  0  0
   -9.3351  -13.0509  -14.9279 C   0  0  0  0  0  0
   -9.4998  -13.7534  -15.9056 O   0  0  0  0  0  0
   -8.3599  -13.3088  -14.0313 O   0  0  0  0  0  0
   -8.0595   -0.8777   -5.4705 H   0  0  0  0  0  0
   -8.7201   -1.0804   -6.9345 H   0  0  0  0  0  0
  -11.1332   -3.3934   -3.8066 H   0  0  0  0  0  0
   -5.9699   -1.7414   -2.4392 H   0  0  0  0  0  0
   -4.0931   -5.6771   -7.5095 H   0  0  0  0  0  0
   -9.3273   -4.0982  -18.7043 H   0  0  0  0  0  0
   -9.1305   -1.4074  -13.3683 H   0  0  0  0  0  0
  -10.6841   -7.8936  -16.3813 H   0  0  0  0  0  0
   -7.5755  -13.7814  -14.3887 H   0  0  0  0  0  0
  1  2  1  0  0  0
  2  3  1  0  0  0
  3  4  1  0  0  0
  4  5  1  0  0  0
  5  6  1  0  0  0
  5  7  1  0  0  0
  7  8  1  0  0  0
  7 39  1  0  0  0
  8  9  1  0  0  0
  8 27  1  0  0  0
  9 10  1  0  0  0
 10 11  1  0  0  0
 10 12  1  0  0  0
 12 13  1  0  0  0
 13 14  1  0  0  0
 13 26  1  0  0  0
 14 15  1  0  0  0
 15 16  1  0  0  0
 16 17  1  0  0  0
 17 18  1  0  0  0
 18 19  1  0  0  0
 18 25  1  0  0  0
 19 20  1  0  0  0
 20 21  1  0  0  0
 20 24  1  0  0  0
 21 22  1  0  0  0
 21 23  1  0  0  0
 23 51  1  0  0  0
 23 52  1  0  0  0
 24 53  1  0  0  0
 25 54  1  0  0  0
 26 55  1  0  0  0
 27 28  1  0  0  0
 28 29  2  0  0  0
 28 30  1  0  0  0
 30 31  1  0  0  0
 31 32  1  0  0  0
 31 36  1  0  0  0
 32 33  1  0  0  0
 33 34  2  0  0  0
 33 35  1  0  0  0
 35 56  1  0  0  0
 36 37  2  0  0  0
 36 38  1  0  0  0
 38 57  1  0  0  0
 39 40  1  0  0  0
 40 41  2  0  0  0
 40 42  1  0  0  0
 42 43  1  0  0  0
 43 44  1  0  0  0
 43 48  1  0  0  0
 44 45  1  0  0  0
 45 46  2  0  0  0
 45 47  1  0  0  0
 47 58  1  0  0  0
 48 49  2  0  0  0
 48 50  1  0  0  0
 50 59  1  0  0  0
M  END
>  <AUTHOR>
    GENERATED BY OPEN BABEL 2.4.1

>  <CHROM.1>
-157.92701024,172.66532142,67.55342584,171.54403852,-25.15504895,106.96890386
-168.69204785,97.75970021,-56.46556385,-171.52959249,96.07360305,167.35325375
102.23917270,-75.80912860,175.76332893,40.88840362,62.25751184,-145.80328401
73.13673812,70.61958717,179.08935623,-55.90197761,-46.24574304,23.71924227
-15.09180376,115.99510836,-164.63410795,-119.80039608,53.84183974,-178.08750740
173.33496903,138.95110980,-100.82074455,43.80863231,-44.81004374,-173.43029245
-45.11960973,-170.99502299,-147.62607378,-8.53693033,-6.61604777,-11.82557136
-1.74051840,-1.22249270,0.82097515

>  <COMPND>
    UNNAMED

>  <MASTER>
        0    0    0    0    0    0    0    0  109    0  109    0

>  <Name>
FB1.pdb

>  <RI>
0

>  <Rbt.Current_Directory>
/home/fc/tossine/FB1_39/p3/0_clust04

>  <Rbt.Executable>
rbdock/0.1.0

>  <Rbt.Library>
librxdock.so/0.1.0

>  <Rbt.Parameter_File>
/cluster/rxdock/data/scripts/dock.prm

>  <Rbt.Receptor>
rx_1.prm

>  <SCORE>
23.3449

>  <SCORE.INTER>
-0.161092

>  <SCORE.INTER.CONST>
1

>  <SCORE.INTER.POLAR>
-3.77146

>  <SCORE.INTER.REPUL>
0.520725

>  <SCORE.INTER.ROT>
32

>  <SCORE.INTER.VDW>
-27.3417

>  <SCORE.INTER.norm>
-0.00322184

>  <SCORE.INTRA>
23.3982

>  <SCORE.INTRA.DIHEDRAL>
30.5194

>  <SCORE.INTRA.DIHEDRAL.0>
47.3121

>  <SCORE.INTRA.POLAR>
1.47808

>  <SCORE.INTRA.POLAR.0>
-1.47808

>  <SCORE.INTRA.REPUL>
0

>  <SCORE.INTRA.REPUL.0>
0

>  <SCORE.INTRA.VDW>
3.113

>  <SCORE.INTRA.VDW.0>
-2.78316

>  <SCORE.INTRA.norm>
0.467963

>  <SCORE.RESTR>
0.107829

>  <SCORE.RESTR.CAVITY>
0.107829

>  <SCORE.RESTR.norm>
0.00215658

>  <SCORE.SYSTEM>
0

>  <SCORE.SYSTEM.CONST>
0

>  <SCORE.SYSTEM.DIHEDRAL>
0

>  <SCORE.SYSTEM.norm>
0

>  <SCORE.heavy>
50

>  <SCORE.norm>
0.466898

$$$$
