FB1.pdb
  RxDock  10062020023D
librxdock.so/0.1.0
 59 58  0  0  0  0  0  0  0  0999 V2000
   -9.9099   -4.0334  -20.8116 C   0  0  0  0  0  0
  -10.2673   -4.5366  -19.4150 C   0  0  0  0  0  0
   -9.2441   -5.5624  -18.9002 C   0  0  0  0  0  0
   -9.4622   -5.9626  -17.4196 C   0  0  0  0  0  0
   -8.2404   -6.6733  -16.7395 C   0  0  0  0  0  0
   -7.0579   -5.6779  -16.7039 C   0  0  0  0  0  0
   -8.5587   -7.2286  -15.2875 C   0  0  0  0  0  0
   -9.1221   -6.1789  -14.2166 C   0  0  0  0  0  0
   -8.3003   -5.5970  -12.9860 C   0  0  0  0  0  0
   -8.0921   -6.6423  -11.7269 C   0  0  0  0  0  0
   -7.2078   -7.7965  -12.1958 C   0  0  0  0  0  0
   -7.4917   -6.0184  -10.3871 C   0  0  0  0  0  0
   -6.0931   -5.2080  -10.3106 C   0  0  0  0  0  0
   -5.4280   -4.8068   -8.9494 C   0  0  0  0  0  0
   -5.7096   -3.3458   -8.3704 C   0  0  0  0  0  0
   -7.1501   -2.7232   -8.1917 C   0  0  0  0  0  0
   -8.1525   -3.3846   -7.2092 C   0  0  0  0  0  0
   -8.0408   -2.9585   -5.6942 C   0  0  0  0  0  0
   -6.6299   -2.9512   -5.0928 C   0  0  0  0  0  0
   -6.4867   -3.0472   -3.5473 C   0  0  0  0  0  0
   -6.5420   -4.4293   -2.8317 C   0  0  0  0  0  0
   -6.3118   -4.4229   -1.3269 C   0  0  0  0  0  0
   -7.7847   -5.1479   -3.1720 N   0  0  0  0  0  0
   -5.1594   -2.5329   -3.2685 O   0  0  0  0  0  0
   -8.5983   -1.6465   -5.5622 O   0  0  0  0  0  0
   -5.1354   -6.0617  -10.9590 O   0  0  0  0  0  0
   -9.5208   -5.0026  -14.9714 O   0  0  0  0  0  0
  -10.2836   -4.0836  -14.3242 C   0  0  0  0  0  0
  -10.7999   -4.2186  -13.2312 O   0  0  0  0  0  0
  -10.3036   -2.8212  -15.1411 C   0  0  0  0  0  0
  -11.7237   -2.2666  -15.3361 C   0  0  0  0  0  0
  -11.8488   -0.8017  -14.8983 C   0  0  0  0  0  0
  -12.1996   -0.6990  -13.4321 C   0  0  0  0  0  0
  -13.0882    0.0251  -12.9964 O   0  0  0  0  0  0
  -11.4445   -1.4804  -12.6460 O   0  0  0  0  0  0
  -12.0241   -2.3941  -16.8359 C   0  0  0  0  0  0
  -11.9924   -1.4458  -17.6054 O   0  0  0  0  0  0
  -12.3740   -3.6272  -17.2270 O   0  0  0  0  0  0
   -9.3916   -8.4541  -15.3536 O   0  0  0  0  0  0
   -9.0510   -9.4337  -16.2715 C   0  0  0  0  0  0
   -8.0905   -9.3754  -17.0280 O   0  0  0  0  0  0
  -10.0196  -10.6233  -16.2420 C   0  0  0  0  0  0
   -9.7105  -11.7223  -15.1785 C   0  0  0  0  0  0
   -8.7656  -12.8703  -15.5782 C   0  0  0  0  0  0
   -7.5949  -12.4082  -16.3969 C   0  0  0  0  0  0
   -7.6409  -12.0367  -17.5616 O   0  0  0  0  0  0
   -6.4464  -12.4214  -15.7033 O   0  0  0  0  0  0
   -9.2226  -11.1835  -13.8280 C   0  0  0  0  0  0
   -8.6090  -10.1405  -13.7160 O   0  0  0  0  0  0
   -9.6120  -11.8912  -12.7469 O   0  0  0  0  0  0
   -7.5502   -6.0834   -3.5012 H   0  0  0  0  0  0
   -8.2190   -4.6872   -3.9748 H   0  0  0  0  0  0
   -5.2170   -1.5763   -3.4755 H   0  0  0  0  0  0
   -8.5871   -1.4049   -4.6177 H   0  0  0  0  0  0
   -4.2910   -5.5830  -11.0088 H   0  0  0  0  0  0
  -11.9241   -1.9370  -11.9284 H   0  0  0  0  0  0
  -12.6212   -3.6997  -18.1822 H   0  0  0  0  0  0
   -6.6343  -12.8790  -14.8568 H   0  0  0  0  0  0
  -10.1929  -12.6612  -12.9363 H   0  0  0  0  0  0
  1  2  1  0  0  0
  2  3  1  0  0  0
  3  4  1  0  0  0
  4  5  1  0  0  0
  5  6  1  0  0  0
  5  7  1  0  0  0
  7  8  1  0  0  0
  7 39  1  0  0  0
  8  9  1  0  0  0
  8 27  1  0  0  0
  9 10  1  0  0  0
 10 11  1  0  0  0
 10 12  1  0  0  0
 12 13  1  0  0  0
 13 14  1  0  0  0
 13 26  1  0  0  0
 14 15  1  0  0  0
 15 16  1  0  0  0
 16 17  1  0  0  0
 17 18  1  0  0  0
 18 19  1  0  0  0
 18 25  1  0  0  0
 19 20  1  0  0  0
 20 21  1  0  0  0
 20 24  1  0  0  0
 21 22  1  0  0  0
 21 23  1  0  0  0
 23 51  1  0  0  0
 23 52  1  0  0  0
 24 53  1  0  0  0
 25 54  1  0  0  0
 26 55  1  0  0  0
 27 28  1  0  0  0
 28 29  2  0  0  0
 28 30  1  0  0  0
 30 31  1  0  0  0
 31 32  1  0  0  0
 31 36  1  0  0  0
 32 33  1  0  0  0
 33 34  2  0  0  0
 33 35  1  0  0  0
 35 56  1  0  0  0
 36 37  2  0  0  0
 36 38  1  0  0  0
 38 57  1  0  0  0
 39 40  1  0  0  0
 40 41  2  0  0  0
 40 42  1  0  0  0
 42 43  1  0  0  0
 43 44  1  0  0  0
 43 48  1  0  0  0
 44 45  1  0  0  0
 45 46  2  0  0  0
 45 47  1  0  0  0
 47 58  1  0  0  0
 48 49  2  0  0  0
 48 50  1  0  0  0
 50 59  1  0  0  0
M  END
>  <AUTHOR>
    GENERATED BY OPEN BABEL 2.4.1

>  <CHROM.1>
172.51715392,-163.58400837,63.47188489,-55.60870804,-107.21447219,44.99182436
-74.87068952,166.66035844,65.98720764,-55.63906126,-170.17764877,-95.30417691
175.06957861,51.32146563,63.25527142,84.85102811,-47.08123848,-158.44414387
176.15484909,82.60048678,176.59489861,68.75492098,127.81693422,-9.45669643
131.55135797,125.93186614,-88.50229320,-103.35383964,-132.49086658,-138.92387093
176.46066853,1.24473877,-85.17955532,-88.68278159,40.54360550,-29.03705842
-72.06839948,9.26282797,-1.96605122,-8.75027896,-5.71345369,-12.67764588
2.02648402,1.11411413,-2.33295655

>  <COMPND>
    UNNAMED

>  <MASTER>
        0    0    0    0    0    0    0    0  109    0  109    0

>  <Name>
FB1.pdb

>  <RI>
0

>  <Rbt.Current_Directory>
/home/fc/tossine/FB1_39/p3/0_clust04

>  <Rbt.Executable>
rbdock/0.1.0

>  <Rbt.Library>
librxdock.so/0.1.0

>  <Rbt.Parameter_File>
/cluster/rxdock/data/scripts/dock.prm

>  <Rbt.Receptor>
rx_0.prm

>  <SCORE>
16.8195

>  <SCORE.INTER>
3.71976

>  <SCORE.INTER.CONST>
1

>  <SCORE.INTER.POLAR>
-3.37125

>  <SCORE.INTER.REPUL>
1.58549

>  <SCORE.INTER.ROT>
32

>  <SCORE.INTER.VDW>
-30.1454

>  <SCORE.INTER.norm>
0.0743952

>  <SCORE.INTRA>
12.8776

>  <SCORE.INTRA.DIHEDRAL>
10.6634

>  <SCORE.INTRA.DIHEDRAL.0>
47.3121

>  <SCORE.INTRA.POLAR>
1.47808

>  <SCORE.INTRA.POLAR.0>
-1.47808

>  <SCORE.INTRA.REPUL>
0

>  <SCORE.INTRA.REPUL.0>
0

>  <SCORE.INTRA.VDW>
2.52037

>  <SCORE.INTRA.VDW.0>
-2.78316

>  <SCORE.INTRA.norm>
0.257551

>  <SCORE.RESTR>
0.222174

>  <SCORE.RESTR.CAVITY>
0.222174

>  <SCORE.RESTR.norm>
0.00444349

>  <SCORE.SYSTEM>
0

>  <SCORE.SYSTEM.CONST>
0

>  <SCORE.SYSTEM.DIHEDRAL>
0

>  <SCORE.SYSTEM.norm>
0

>  <SCORE.heavy>
50

>  <SCORE.norm>
0.33639

$$$$
