FB1.pdb
  RxDock  10062021063D
librxdock.so/0.1.0
 59 58  0  0  0  0  0  0  0  0999 V2000
  -12.3155   -6.5370  -10.6109 C   0  0  0  0  0  0
  -11.2137   -6.4132  -11.6607 C   0  0  0  0  0  0
  -10.7110   -7.7906  -12.1237 C   0  0  0  0  0  0
   -9.3238   -7.7426  -12.8114 C   0  0  0  0  0  0
   -8.2371   -6.9050  -12.0511 C   0  0  0  0  0  0
   -6.9625   -7.7702  -11.9181 C   0  0  0  0  0  0
   -7.9099   -5.5152  -12.7434 C   0  0  0  0  0  0
   -9.0650   -4.8615  -13.6404 C   0  0  0  0  0  0
  -10.0531   -5.6679  -14.5898 C   0  0  0  0  0  0
  -10.4078   -4.9277  -16.0208 C   0  0  0  0  0  0
  -10.8170   -3.4843  -15.7319 C   0  0  0  0  0  0
   -9.2579   -4.9466  -17.1262 C   0  0  0  0  0  0
   -9.5317   -4.9309  -18.7210 C   0  0  0  0  0  0
   -9.9701   -6.2115  -19.5109 C   0  0  0  0  0  0
   -9.6706   -7.6400  -18.8637 C   0  0  0  0  0  0
   -9.7988   -7.9620  -17.3227 C   0  0  0  0  0  0
  -10.6616   -9.1666  -16.8625 C   0  0  0  0  0  0
   -9.9354  -10.2622  -15.9899 C   0  0  0  0  0  0
   -8.4472  -10.4883  -16.2840 C   0  0  0  0  0  0
   -7.8426  -11.8909  -15.9916 C   0  0  0  0  0  0
   -6.5819  -12.3852  -16.7608 C   0  0  0  0  0  0
   -6.1842  -13.8390  -16.5465 C   0  0  0  0  0  0
   -6.6882  -12.0741  -18.1989 N   0  0  0  0  0  0
   -7.4350  -11.8328  -14.6008 O   0  0  0  0  0  0
  -10.0762   -9.8952  -14.6132 O   0  0  0  0  0  0
  -10.6053   -3.9923  -18.9024 O   0  0  0  0  0  0
   -9.9437   -4.1575  -12.7213 O   0  0  0  0  0  0
   -9.6877   -2.8403  -12.5099 C   0  0  0  0  0  0
   -8.6050   -2.2939  -12.6029 O   0  0  0  0  0  0
  -10.9903   -2.1398  -12.2381 C   0  0  0  0  0  0
  -10.9304   -1.2454  -10.9895 C   0  0  0  0  0  0
  -11.9211   -0.0760  -11.0550 C   0  0  0  0  0  0
  -13.2654   -0.5289  -11.5755 C   0  0  0  0  0  0
  -14.1190   -1.0627  -10.8753 O   0  0  0  0  0  0
  -13.4403   -0.2896  -12.8835 O   0  0  0  0  0  0
  -11.2705   -2.1561   -9.8016 C   0  0  0  0  0  0
  -11.3500   -3.3716   -9.8944 O   0  0  0  0  0  0
  -11.5230   -1.5032   -8.6588 O   0  0  0  0  0  0
   -7.3527   -4.5484  -11.7664 O   0  0  0  0  0  0
   -7.8987   -4.5082  -10.4942 C   0  0  0  0  0  0
   -9.0484   -4.8263  -10.2196 O   0  0  0  0  0  0
   -6.8952   -4.0152   -9.4435 C   0  0  0  0  0  0
   -7.2888   -2.7048   -8.6933 C   0  0  0  0  0  0
   -8.3651   -2.7949   -7.5962 C   0  0  0  0  0  0
   -7.8660   -3.4420   -6.3365 C   0  0  0  0  0  0
   -7.2870   -2.8715   -5.4223 O   0  0  0  0  0  0
   -8.1390   -4.7549   -6.2911 O   0  0  0  0  0  0
   -6.1053   -1.9274   -8.1040 C   0  0  0  0  0  0
   -4.9844   -2.3903   -8.0261 O   0  0  0  0  0  0
   -6.3626   -0.6453   -7.7707 O   0  0  0  0  0  0
   -7.0599  -12.8861  -18.6898 H   0  0  0  0  0  0
   -5.7464  -11.9467  -18.5761 H   0  0  0  0  0  0
   -6.9776  -12.6854  -14.4419 H   0  0  0  0  0  0
  -11.0156   -9.9866  -14.3686 H   0  0  0  0  0  0
  -10.2439   -3.0969  -18.7919 H   0  0  0  0  0  0
  -12.6963    0.1606  -13.3277 H   0  0  0  0  0  0
  -11.9068   -2.0659   -7.9413 H   0  0  0  0  0  0
   -8.5638   -4.9836   -7.1446 H   0  0  0  0  0  0
   -7.2817   -0.3429   -7.9443 H   0  0  0  0  0  0
  1  2  1  0  0  0
  2  3  1  0  0  0
  3  4  1  0  0  0
  4  5  1  0  0  0
  5  6  1  0  0  0
  5  7  1  0  0  0
  7  8  1  0  0  0
  7 39  1  0  0  0
  8  9  1  0  0  0
  8 27  1  0  0  0
  9 10  1  0  0  0
 10 11  1  0  0  0
 10 12  1  0  0  0
 12 13  1  0  0  0
 13 14  1  0  0  0
 13 26  1  0  0  0
 14 15  1  0  0  0
 15 16  1  0  0  0
 16 17  1  0  0  0
 17 18  1  0  0  0
 18 19  1  0  0  0
 18 25  1  0  0  0
 19 20  1  0  0  0
 20 21  1  0  0  0
 20 24  1  0  0  0
 21 22  1  0  0  0
 21 23  1  0  0  0
 23 51  1  0  0  0
 23 52  1  0  0  0
 24 53  1  0  0  0
 25 54  1  0  0  0
 26 55  1  0  0  0
 27 28  1  0  0  0
 28 29  2  0  0  0
 28 30  1  0  0  0
 30 31  1  0  0  0
 31 32  1  0  0  0
 31 36  1  0  0  0
 32 33  1  0  0  0
 33 34  2  0  0  0
 33 35  1  0  0  0
 35 56  1  0  0  0
 36 37  2  0  0  0
 36 38  1  0  0  0
 38 57  1  0  0  0
 39 40  1  0  0  0
 40 41  2  0  0  0
 40 42  1  0  0  0
 42 43  1  0  0  0
 43 44  1  0  0  0
 43 48  1  0  0  0
 44 45  1  0  0  0
 45 46  2  0  0  0
 45 47  1  0  0  0
 47 58  1  0  0  0
 48 49  2  0  0  0
 48 50  1  0  0  0
 50 59  1  0  0  0
M  END
>  <AUTHOR>
    GENERATED BY OPEN BABEL 2.4.1

>  <CHROM.1>
-161.17779593,47.11399054,129.72719426,26.14108379,-38.25369008,-39.98579219
-141.52438976,93.06323132,-49.27712554,150.75056422,-78.16036709,-20.90955508
74.50026649,38.53171232,127.03539811,122.95892909,-31.98938018,-152.36058525
68.18070052,154.78410933,-171.69430748,-174.78387727,-95.11805511,-27.44604071
131.15839049,152.95728605,43.24879077,10.03607668,82.14678731,-1.37050955
168.96975729,-26.88808111,118.71153587,76.03040192,73.85434914,-11.72171879
85.89931977,3.40403198,-0.24352033,-9.29157688,-5.32295354,-12.69691900,-1.67816306
0.90494431,-2.25484027

>  <COMPND>
    UNNAMED

>  <MASTER>
        0    0    0    0    0    0    0    0  109    0  109    0

>  <Name>
FB1.pdb

>  <RI>
0

>  <Rbt.Current_Directory>
/home/fc/tossine/FB1_39/p3/0_clust04

>  <Rbt.Executable>
rbdock/0.1.0

>  <Rbt.Library>
librxdock.so/0.1.0

>  <Rbt.Parameter_File>
/cluster/rxdock/data/scripts/dock.prm

>  <Rbt.Receptor>
rx_1.prm

>  <SCORE>
17.5282

>  <SCORE.INTER>
-7.90822

>  <SCORE.INTER.CONST>
1

>  <SCORE.INTER.POLAR>
-3.46938

>  <SCORE.INTER.REPUL>
0.323127

>  <SCORE.INTER.ROT>
32

>  <SCORE.INTER.VDW>
-35.128

>  <SCORE.INTER.norm>
-0.158164

>  <SCORE.INTRA>
25.4364

>  <SCORE.INTRA.DIHEDRAL>
37.8113

>  <SCORE.INTRA.DIHEDRAL.0>
47.3121

>  <SCORE.INTRA.POLAR>
1.47808

>  <SCORE.INTRA.POLAR.0>
-1.47808

>  <SCORE.INTRA.REPUL>
0

>  <SCORE.INTRA.REPUL.0>
0

>  <SCORE.INTRA.VDW>
1.50533

>  <SCORE.INTRA.VDW.0>
-2.78316

>  <SCORE.INTRA.norm>
0.508729

>  <SCORE.RESTR>
0

>  <SCORE.RESTR.CAVITY>
0

>  <SCORE.RESTR.norm>
0

>  <SCORE.SYSTEM>
0

>  <SCORE.SYSTEM.CONST>
0

>  <SCORE.SYSTEM.DIHEDRAL>
0

>  <SCORE.SYSTEM.norm>
0

>  <SCORE.heavy>
50

>  <SCORE.norm>
0.350565

$$$$
