FB1.pdb
  RxDock  10062020563D
librxdock.so/0.1.0
 59 58  0  0  0  0  0  0  0  0999 V2000
  -10.5182    1.6826   -4.0475 C   0  0  0  0  0  0
  -11.2490    1.3706   -5.3514 C   0  0  0  0  0  0
  -11.3502   -0.1436   -5.5991 C   0  0  0  0  0  0
  -10.0032   -0.7951   -6.0001 C   0  0  0  0  0  0
   -9.9530   -2.3558   -5.8512 C   0  0  0  0  0  0
  -11.3840   -2.9083   -6.0448 C   0  0  0  0  0  0
   -8.9352   -3.0546   -6.8481 C   0  0  0  0  0  0
   -9.0081   -2.6140   -8.3865 C   0  0  0  0  0  0
   -8.9821   -3.6098   -9.6258 C   0  0  0  0  0  0
   -7.4990   -4.2329   -9.9914 C   0  0  0  0  0  0
   -7.0324   -5.0944   -8.8191 C   0  0  0  0  0  0
   -7.4034   -5.0731  -11.3441 C   0  0  0  0  0  0
   -8.2212   -6.4414  -11.6224 C   0  0  0  0  0  0
   -8.1298   -7.2127  -12.9835 C   0  0  0  0  0  0
   -6.6883   -7.4342  -13.6332 C   0  0  0  0  0  0
   -6.3890   -8.4466  -14.8080 C   0  0  0  0  0  0
   -7.0226   -8.2069  -16.2039 C   0  0  0  0  0  0
   -6.3160   -8.9064  -17.4289 C   0  0  0  0  0  0
   -7.1421   -9.9581  -18.1799 C   0  0  0  0  0  0
   -7.3531  -11.3457  -17.5104 C   0  0  0  0  0  0
   -6.9738  -11.5696  -16.0166 C   0  0  0  0  0  0
   -8.0959  -11.4065  -15.0009 C   0  0  0  0  0  0
   -6.2840  -12.8612  -15.8375 N   0  0  0  0  0  0
   -8.7849  -11.5695  -17.5718 O   0  0  0  0  0  0
   -5.9271   -7.8868  -18.3557 O   0  0  0  0  0  0
   -7.7401   -7.3671  -10.6334 O   0  0  0  0  0  0
  -10.2534   -1.8804   -8.5405 O   0  0  0  0  0  0
  -11.3141   -2.5643   -9.0430 C   0  0  0  0  0  0
  -11.4649   -3.7711   -9.0269 O   0  0  0  0  0  0
  -12.3295   -1.5714   -9.5374 C   0  0  0  0  0  0
  -11.8182   -0.7484  -10.7306 C   0  0  0  0  0  0
  -12.1893   -1.3756  -12.0805 C   0  0  0  0  0  0
  -13.3236   -0.6238  -12.7375 C   0  0  0  0  0  0
  -14.5058   -0.9121  -12.5863 O   0  0  0  0  0  0
  -12.9142    0.3966  -13.5055 O   0  0  0  0  0  0
  -12.4683    0.6357  -10.5980 C   0  0  0  0  0  0
  -11.9400    1.6618  -10.9985 O   0  0  0  0  0  0
  -13.6467    0.6343   -9.9598 O   0  0  0  0  0  0
   -7.5495   -3.0031   -6.3218 O   0  0  0  0  0  0
   -7.2207   -3.8168   -5.2504 C   0  0  0  0  0  0
   -8.0291   -4.2952   -4.4655 O   0  0  0  0  0  0
   -5.7098   -4.0627   -5.1462 C   0  0  0  0  0  0
   -5.2665   -5.1142   -4.0820 C   0  0  0  0  0  0
   -3.9343   -5.8527   -4.3061 C   0  0  0  0  0  0
   -3.8659   -6.5492   -5.6346 C   0  0  0  0  0  0
   -4.6195   -6.3592   -6.5794 O   0  0  0  0  0  0
   -2.8501   -7.4230   -5.7042 O   0  0  0  0  0  0
   -5.2600   -4.5965   -2.6383 C   0  0  0  0  0  0
   -5.4226   -3.4258   -2.3560 O   0  0  0  0  0  0
   -5.1681   -5.5453   -1.6830 O   0  0  0  0  0  0
   -6.9456  -13.6188  -16.0012 H   0  0  0  0  0  0
   -6.0146  -12.9543  -14.8556 H   0  0  0  0  0  0
   -9.1794  -10.7361  -17.2382 H   0  0  0  0  0  0
   -5.3243   -8.2847  -19.0105 H   0  0  0  0  0  0
   -8.1678   -8.2254  -10.7916 H   0  0  0  0  0  0
  -11.9474    0.5289  -13.5420 H   0  0  0  0  0  0
  -14.0823    1.5206   -9.9012 H   0  0  0  0  0  0
   -2.4385   -7.4474   -4.8146 H   0  0  0  0  0  0
   -5.3071   -5.2291   -0.7627 H   0  0  0  0  0  0
  1  2  1  0  0  0
  2  3  1  0  0  0
  3  4  1  0  0  0
  4  5  1  0  0  0
  5  6  1  0  0  0
  5  7  1  0  0  0
  7  8  1  0  0  0
  7 39  1  0  0  0
  8  9  1  0  0  0
  8 27  1  0  0  0
  9 10  1  0  0  0
 10 11  1  0  0  0
 10 12  1  0  0  0
 12 13  1  0  0  0
 13 14  1  0  0  0
 13 26  1  0  0  0
 14 15  1  0  0  0
 15 16  1  0  0  0
 16 17  1  0  0  0
 17 18  1  0  0  0
 18 19  1  0  0  0
 18 25  1  0  0  0
 19 20  1  0  0  0
 20 21  1  0  0  0
 20 24  1  0  0  0
 21 22  1  0  0  0
 21 23  1  0  0  0
 23 51  1  0  0  0
 23 52  1  0  0  0
 24 53  1  0  0  0
 25 54  1  0  0  0
 26 55  1  0  0  0
 27 28  1  0  0  0
 28 29  2  0  0  0
 28 30  1  0  0  0
 30 31  1  0  0  0
 31 32  1  0  0  0
 31 36  1  0  0  0
 32 33  1  0  0  0
 33 34  2  0  0  0
 33 35  1  0  0  0
 35 56  1  0  0  0
 36 37  2  0  0  0
 36 38  1  0  0  0
 38 57  1  0  0  0
 39 40  1  0  0  0
 40 41  2  0  0  0
 40 42  1  0  0  0
 42 43  1  0  0  0
 43 44  1  0  0  0
 43 48  1  0  0  0
 44 45  1  0  0  0
 45 46  2  0  0  0
 45 47  1  0  0  0
 47 58  1  0  0  0
 48 49  2  0  0  0
 48 50  1  0  0  0
 50 59  1  0  0  0
M  END
>  <AUTHOR>
    GENERATED BY OPEN BABEL 2.4.1

>  <CHROM.1>
-72.45475506,162.77569412,28.77531007,-47.99076532,-134.97028139,72.49007000
-76.25658960,-98.42522171,64.14842142,-62.41691138,178.14070783,45.23311464
-176.84952586,165.83915640,65.24231397,158.91413030,116.39107258,-74.61081731
167.73611542,11.44875063,94.87784409,-48.43972336,-68.59991291,22.34077586
65.46207041,92.37699708,104.50482816,150.05985382,-91.57337745,-0.26054816
-177.96529514,-21.33551754,-172.41843385,154.06049059,-55.39833853,-8.76548740
14.80971664,4.96045823,-170.69884708,-8.54931109,-4.57554720,-9.76191520
1.79334706,-0.79616165,1.07080681

>  <COMPND>
    UNNAMED

>  <MASTER>
        0    0    0    0    0    0    0    0  109    0  109    0

>  <Name>
FB1.pdb

>  <RI>
0

>  <Rbt.Current_Directory>
/home/fc/tossine/FB1_39/p3/0_clust04

>  <Rbt.Executable>
rbdock/0.1.0

>  <Rbt.Library>
librxdock.so/0.1.0

>  <Rbt.Parameter_File>
/cluster/rxdock/data/scripts/dock.prm

>  <Rbt.Receptor>
rx_1.prm

>  <SCORE>
41.6621

>  <SCORE.INTER>
12.6625

>  <SCORE.INTER.CONST>
1

>  <SCORE.INTER.POLAR>
-2.54105

>  <SCORE.INTER.REPUL>
0.884154

>  <SCORE.INTER.ROT>
32

>  <SCORE.INTER.VDW>
-20.5187

>  <SCORE.INTER.norm>
0.253251

>  <SCORE.INTRA>
28.7518

>  <SCORE.INTRA.DIHEDRAL>
15.3529

>  <SCORE.INTRA.DIHEDRAL.0>
47.3121

>  <SCORE.INTRA.POLAR>
1.47808

>  <SCORE.INTRA.POLAR.0>
-1.47808

>  <SCORE.INTRA.REPUL>
0

>  <SCORE.INTRA.REPUL.0>
0

>  <SCORE.INTRA.VDW>
16.0499

>  <SCORE.INTRA.VDW.0>
-2.78316

>  <SCORE.INTRA.norm>
0.575036

>  <SCORE.RESTR>
0.247769

>  <SCORE.RESTR.CAVITY>
0.247769

>  <SCORE.RESTR.norm>
0.00495539

>  <SCORE.SYSTEM>
0

>  <SCORE.SYSTEM.CONST>
0

>  <SCORE.SYSTEM.DIHEDRAL>
0

>  <SCORE.SYSTEM.norm>
0

>  <SCORE.heavy>
50

>  <SCORE.norm>
0.833242

$$$$
