FB1.pdb
  RxDock  10062020563D
librxdock.so/0.1.0
 59 58  0  0  0  0  0  0  0  0999 V2000
   -3.4396   -3.0361   -6.0634 C   0  0  0  0  0  0
   -2.9037   -2.7764   -7.4693 C   0  0  0  0  0  0
   -4.0138   -2.8737   -8.5288 C   0  0  0  0  0  0
   -5.0273   -1.7036   -8.4707 C   0  0  0  0  0  0
   -6.0434   -1.7671   -7.2774 C   0  0  0  0  0  0
   -6.3742   -0.3203   -6.8438 C   0  0  0  0  0  0
   -7.3668   -2.5749   -7.6151 C   0  0  0  0  0  0
   -7.2918   -4.1710   -7.5009 C   0  0  0  0  0  0
   -6.4339   -5.1168   -8.4484 C   0  0  0  0  0  0
   -6.7587   -4.9734  -10.0594 C   0  0  0  0  0  0
   -6.6749   -6.3595  -10.6965 C   0  0  0  0  0  0
   -8.1514   -4.2939  -10.4381 C   0  0  0  0  0  0
   -8.8002   -4.3191  -11.9204 C   0  0  0  0  0  0
  -10.1853   -4.9883  -12.2200 C   0  0  0  0  0  0
  -10.3993   -6.5112  -11.7906 C   0  0  0  0  0  0
  -10.5530   -7.7085  -12.8092 C   0  0  0  0  0  0
   -9.3021   -8.2423  -13.5561 C   0  0  0  0  0  0
   -9.2576   -9.7939  -13.8384 C   0  0  0  0  0  0
   -8.0753  -10.2986  -14.6749 C   0  0  0  0  0  0
   -7.8420  -11.8331  -14.7713 C   0  0  0  0  0  0
   -8.8525  -12.7408  -15.5331 C   0  0  0  0  0  0
  -10.2960  -12.7005  -15.0514 C   0  0  0  0  0  0
   -8.7753  -12.5076  -16.9877 N   0  0  0  0  0  0
   -6.5934  -11.9703  -15.4965 O   0  0  0  0  0  0
   -9.2450  -10.4720  -12.5775 O   0  0  0  0  0  0
   -8.9676   -2.9358  -12.2741 O   0  0  0  0  0  0
   -6.8007   -4.4601   -6.1639 O   0  0  0  0  0  0
   -7.6805   -4.3159   -5.1390 C   0  0  0  0  0  0
   -8.7143   -3.6756   -5.1631 O   0  0  0  0  0  0
   -7.2159   -5.1669   -3.9895 C   0  0  0  0  0  0
   -5.7084   -5.0281   -3.7237 C   0  0  0  0  0  0
   -4.8548   -5.5718   -4.8766 C   0  0  0  0  0  0
   -3.7763   -6.4990   -4.3662 C   0  0  0  0  0  0
   -3.6190   -7.6452   -4.7726 O   0  0  0  0  0  0
   -3.0004   -5.9472   -3.4215 O   0  0  0  0  0  0
   -5.4488   -3.5263   -3.5408 C   0  0  0  0  0  0
   -6.2316   -2.6644   -3.9106 O   0  0  0  0  0  0
   -4.2655   -3.2333   -2.9843 O   0  0  0  0  0  0
   -8.5331   -2.0212   -6.8849 O   0  0  0  0  0  0
   -9.8037   -2.3764   -7.3063 C   0  0  0  0  0  0
  -10.0772   -2.7821   -8.4283 O   0  0  0  0  0  0
  -10.8541   -2.2067   -6.2008 C   0  0  0  0  0  0
  -11.4364   -0.7687   -6.0346 C   0  0  0  0  0  0
  -12.5243   -0.5476   -4.9679 C   0  0  0  0  0  0
  -13.5788   -1.6165   -4.9753 C   0  0  0  0  0  0
  -14.7261   -1.4841   -5.3788 O   0  0  0  0  0  0
  -13.1275   -2.7860   -4.4969 O   0  0  0  0  0  0
  -10.3817    0.3277   -5.8398 C   0  0  0  0  0  0
   -9.1949    0.0904   -5.7311 O   0  0  0  0  0  0
  -10.8439    1.5941   -5.9035 O   0  0  0  0  0  0
   -9.3158  -11.6760  -17.2219 H   0  0  0  0  0  0
   -9.2514  -13.2749  -17.4673 H   0  0  0  0  0  0
   -6.0991  -12.6618  -15.0078 H   0  0  0  0  0  0
  -10.0420  -10.2077  -12.0820 H   0  0  0  0  0  0
   -9.6282   -2.5500  -11.6747 H   0  0  0  0  0  0
   -3.1837   -5.0078   -3.2281 H   0  0  0  0  0  0
   -4.0907   -2.2654   -2.8781 H   0  0  0  0  0  0
  -13.9124   -3.3596   -4.3696 H   0  0  0  0  0  0
  -10.1526    2.2926   -5.9233 H   0  0  0  0  0  0
  1  2  1  0  0  0
  2  3  1  0  0  0
  3  4  1  0  0  0
  4  5  1  0  0  0
  5  6  1  0  0  0
  5  7  1  0  0  0
  7  8  1  0  0  0
  7 39  1  0  0  0
  8  9  1  0  0  0
  8 27  1  0  0  0
  9 10  1  0  0  0
 10 11  1  0  0  0
 10 12  1  0  0  0
 12 13  1  0  0  0
 13 14  1  0  0  0
 13 26  1  0  0  0
 14 15  1  0  0  0
 15 16  1  0  0  0
 16 17  1  0  0  0
 17 18  1  0  0  0
 18 19  1  0  0  0
 18 25  1  0  0  0
 19 20  1  0  0  0
 20 21  1  0  0  0
 20 24  1  0  0  0
 21 22  1  0  0  0
 21 23  1  0  0  0
 23 51  1  0  0  0
 23 52  1  0  0  0
 24 53  1  0  0  0
 25 54  1  0  0  0
 26 55  1  0  0  0
 27 28  1  0  0  0
 28 29  2  0  0  0
 28 30  1  0  0  0
 30 31  1  0  0  0
 31 32  1  0  0  0
 31 36  1  0  0  0
 32 33  1  0  0  0
 33 34  2  0  0  0
 33 35  1  0  0  0
 35 56  1  0  0  0
 36 37  2  0  0  0
 36 38  1  0  0  0
 38 57  1  0  0  0
 39 40  1  0  0  0
 40 41  2  0  0  0
 40 42  1  0  0  0
 42 43  1  0  0  0
 43 44  1  0  0  0
 43 48  1  0  0  0
 44 45  1  0  0  0
 45 46  2  0  0  0
 45 47  1  0  0  0
 47 58  1  0  0  0
 48 49  2  0  0  0
 48 50  1  0  0  0
 50 59  1  0  0  0
M  END
>  <AUTHOR>
    GENERATED BY OPEN BABEL 2.4.1

>  <CHROM.1>
70.57700371,-74.51582747,147.35636949,81.80220346,-67.32725554,164.05213429
-56.43927544,75.83340058,-142.69464860,-167.27129873,118.58925810,-54.45202716
-65.70642383,-111.44897012,74.96437660,145.02985330,175.23428951,169.33219675
58.15701282,68.12700161,-57.52581044,136.30379016,-81.14523333,-19.12287599
45.24186475,-65.81280073,-130.95701569,-17.78574090,125.59483292,-4.13944019
179.12389178,-22.14448391,83.68888098,178.25427322,-44.65700989,-4.82079286
-107.26219829,168.82084392,-170.61328142,-8.00246412,-4.79682088,-8.34314287
-1.52200590,0.42879651,-2.32422297

>  <COMPND>
    UNNAMED

>  <MASTER>
        0    0    0    0    0    0    0    0  109    0  109    0

>  <Name>
FB1.pdb

>  <RI>
0

>  <Rbt.Current_Directory>
/home/fc/tossine/FB1_39/p3/0_clust04

>  <Rbt.Executable>
rbdock/0.1.0

>  <Rbt.Library>
librxdock.so/0.1.0

>  <Rbt.Parameter_File>
/cluster/rxdock/data/scripts/dock.prm

>  <Rbt.Receptor>
rx_1.prm

>  <SCORE>
20.3938

>  <SCORE.INTER>
8.50085

>  <SCORE.INTER.CONST>
1

>  <SCORE.INTER.POLAR>
-1.89427

>  <SCORE.INTER.REPUL>
1.76144

>  <SCORE.INTER.ROT>
32

>  <SCORE.INTER.VDW>
-31.2658

>  <SCORE.INTER.norm>
0.170017

>  <SCORE.INTRA>
10.7568

>  <SCORE.INTRA.DIHEDRAL>
13.4594

>  <SCORE.INTRA.DIHEDRAL.0>
47.3121

>  <SCORE.INTRA.POLAR>
0.478077

>  <SCORE.INTRA.POLAR.0>
-1.47808

>  <SCORE.INTRA.REPUL>
0.0449756

>  <SCORE.INTRA.REPUL.0>
0

>  <SCORE.INTRA.VDW>
2.17673

>  <SCORE.INTRA.VDW.0>
-2.78316

>  <SCORE.INTRA.norm>
0.215135

>  <SCORE.RESTR>
1.13621

>  <SCORE.RESTR.CAVITY>
1.13621

>  <SCORE.RESTR.norm>
0.0227242

>  <SCORE.SYSTEM>
0

>  <SCORE.SYSTEM.CONST>
0

>  <SCORE.SYSTEM.DIHEDRAL>
0

>  <SCORE.SYSTEM.norm>
0

>  <SCORE.heavy>
50

>  <SCORE.norm>
0.407876

$$$$
