FB1.pdb
  RxDock  10062020023D
librxdock.so/0.1.0
 59 58  0  0  0  0  0  0  0  0999 V2000
  -14.1412   -0.2615  -11.5247 C   0  0  0  0  0  0
  -13.6609   -1.3935  -10.6195 C   0  0  0  0  0  0
  -12.2745   -1.0973  -10.0243 C   0  0  0  0  0  0
  -11.1252   -1.1928  -11.0585 C   0  0  0  0  0  0
  -10.9272   -2.6112  -11.6984 C   0  0  0  0  0  0
  -10.5841   -2.4253  -13.1946 C   0  0  0  0  0  0
   -9.8240   -3.4871  -10.9679 C   0  0  0  0  0  0
   -8.7323   -4.2019  -11.8972 C   0  0  0  0  0  0
   -7.5287   -5.0980  -11.3713 C   0  0  0  0  0  0
   -6.5795   -5.7555  -12.5494 C   0  0  0  0  0  0
   -5.4360   -6.5178  -11.8819 C   0  0  0  0  0  0
   -7.3165   -6.7063  -13.5970 C   0  0  0  0  0  0
   -6.7509   -7.0372  -15.0766 C   0  0  0  0  0  0
   -7.5547   -7.8985  -16.1102 C   0  0  0  0  0  0
   -7.9822   -9.3790  -15.6924 C   0  0  0  0  0  0
   -7.0308  -10.6366  -15.7795 C   0  0  0  0  0  0
   -6.8624  -11.3757  -17.1333 C   0  0  0  0  0  0
   -8.1734  -11.9662  -17.7827 C   0  0  0  0  0  0
   -9.1481  -12.6670  -16.8280 C   0  0  0  0  0  0
   -8.5953  -13.7860  -15.9004 C   0  0  0  0  0  0
   -7.4646  -14.7364  -16.3941 C   0  0  0  0  0  0
   -7.7335  -15.4954  -17.6860 C   0  0  0  0  0  0
   -6.1726  -14.0272  -16.4583 N   0  0  0  0  0  0
   -8.0241  -13.0781  -14.7706 O   0  0  0  0  0  0
   -8.8653  -10.8948  -18.4332 O   0  0  0  0  0  0
   -6.5861   -5.7546  -15.7046 O   0  0  0  0  0  0
   -9.4707   -5.0793  -12.7902 O   0  0  0  0  0  0
  -10.0909   -6.1499  -12.2295 C   0  0  0  0  0  0
   -9.9908   -6.5154  -11.0737 O   0  0  0  0  0  0
  -11.0101   -6.7573  -13.2530 C   0  0  0  0  0  0
  -10.4480   -8.0552  -13.8547 C   0  0  0  0  0  0
  -10.7926   -9.2913  -13.0140 C   0  0  0  0  0  0
  -10.2842  -10.5548  -13.6686 C   0  0  0  0  0  0
  -10.4930  -10.8418  -14.8423 O   0  0  0  0  0  0
   -9.5768  -11.3380  -12.8409 O   0  0  0  0  0  0
  -11.0738   -8.1785  -15.2508 C   0  0  0  0  0  0
  -12.0111   -8.9220  -15.4983 O   0  0  0  0  0  0
  -10.4743   -7.4377  -16.1930 O   0  0  0  0  0  0
   -9.1969   -2.7371   -9.8525 O   0  0  0  0  0  0
   -9.2956   -3.2554   -8.5721 C   0  0  0  0  0  0
  -10.3413   -3.3716   -7.9465 O   0  0  0  0  0  0
   -7.9332   -3.6782   -8.0068 C   0  0  0  0  0  0
   -7.5427   -3.0444   -6.6355 C   0  0  0  0  0  0
   -7.3269   -1.5211   -6.5779 C   0  0  0  0  0  0
   -5.9540   -1.1059   -7.0223 C   0  0  0  0  0  0
   -4.9584   -1.8167   -7.0214 O   0  0  0  0  0  0
   -5.9172    0.1629   -7.4569 O   0  0  0  0  0  0
   -8.4734   -3.4142   -5.4740 C   0  0  0  0  0  0
   -9.4737   -2.7802   -5.2018 O   0  0  0  0  0  0
   -8.1696   -4.5610   -4.8306 O   0  0  0  0  0  0
   -5.4440  -14.6846  -16.7329 H   0  0  0  0  0  0
   -5.9164  -13.7290  -15.5145 H   0  0  0  0  0  0
   -7.4659  -13.7453  -14.3181 H   0  0  0  0  0  0
   -9.6410  -11.2675  -18.8914 H   0  0  0  0  0  0
   -5.6361   -5.6112  -15.8509 H   0  0  0  0  0  0
   -9.2208  -12.1539  -13.2422 H   0  0  0  0  0  0
  -10.9652   -7.3893  -17.0506 H   0  0  0  0  0  0
   -6.7531    0.3173   -7.9455 H   0  0  0  0  0  0
   -7.4902   -5.1205   -5.2683 H   0  0  0  0  0  0
  1  2  1  0  0  0
  2  3  1  0  0  0
  3  4  1  0  0  0
  4  5  1  0  0  0
  5  6  1  0  0  0
  5  7  1  0  0  0
  7  8  1  0  0  0
  7 39  1  0  0  0
  8  9  1  0  0  0
  8 27  1  0  0  0
  9 10  1  0  0  0
 10 11  1  0  0  0
 10 12  1  0  0  0
 12 13  1  0  0  0
 13 14  1  0  0  0
 13 26  1  0  0  0
 14 15  1  0  0  0
 15 16  1  0  0  0
 16 17  1  0  0  0
 17 18  1  0  0  0
 18 19  1  0  0  0
 18 25  1  0  0  0
 19 20  1  0  0  0
 20 21  1  0  0  0
 20 24  1  0  0  0
 21 22  1  0  0  0
 21 23  1  0  0  0
 23 51  1  0  0  0
 23 52  1  0  0  0
 24 53  1  0  0  0
 25 54  1  0  0  0
 26 55  1  0  0  0
 27 28  1  0  0  0
 28 29  2  0  0  0
 28 30  1  0  0  0
 30 31  1  0  0  0
 31 32  1  0  0  0
 31 36  1  0  0  0
 32 33  1  0  0  0
 33 34  2  0  0  0
 33 35  1  0  0  0
 35 56  1  0  0  0
 36 37  2  0  0  0
 36 38  1  0  0  0
 38 57  1  0  0  0
 39 40  1  0  0  0
 40 41  2  0  0  0
 40 42  1  0  0  0
 42 43  1  0  0  0
 43 44  1  0  0  0
 43 48  1  0  0  0
 44 45  1  0  0  0
 45 46  2  0  0  0
 45 47  1  0  0  0
 47 58  1  0  0  0
 48 49  2  0  0  0
 48 50  1  0  0  0
 50 59  1  0  0  0
M  END
>  <AUTHOR>
    GENERATED BY OPEN BABEL 2.4.1

>  <CHROM.1>
-71.92207231,-62.30826555,141.19059681,-131.84535651,178.77140838,120.06856352
178.07242917,-67.60339186,176.99386795,157.86999835,-175.72822238,-57.66092918
113.71386889,-81.95085279,-82.57277427,-59.05409570,-42.36684323,-52.40156914
175.86366833,-35.05628689,-55.53957613,-164.80604830,176.83881817,-7.13608681
104.23614079,86.12439481,177.20230005,-101.64454779,-50.20922721,-178.86324777
-169.77524943,-65.87658800,124.97438994,-64.81874369,-82.75782855,-88.25853198
-22.93040614,-37.92052717,-10.59358532,-8.89510025,-6.62180499,-12.40040260
1.62359737,-0.61966410,0.72433104

>  <COMPND>
    UNNAMED

>  <MASTER>
        0    0    0    0    0    0    0    0  109    0  109    0

>  <Name>
FB1.pdb

>  <RI>
0

>  <Rbt.Current_Directory>
/home/fc/tossine/FB1_39/p3/0_clust04

>  <Rbt.Executable>
rbdock/0.1.0

>  <Rbt.Library>
librxdock.so/0.1.0

>  <Rbt.Parameter_File>
/cluster/rxdock/data/scripts/dock.prm

>  <Rbt.Receptor>
rx_0.prm

>  <SCORE>
22.3805

>  <SCORE.INTER>
3.50463

>  <SCORE.INTER.CONST>
1

>  <SCORE.INTER.POLAR>
-3.34633

>  <SCORE.INTER.REPUL>
1.73798

>  <SCORE.INTER.ROT>
32

>  <SCORE.INTER.VDW>
-31.2077

>  <SCORE.INTER.norm>
0.0700926

>  <SCORE.INTRA>
18.8759

>  <SCORE.INTRA.DIHEDRAL>
37.0431

>  <SCORE.INTRA.DIHEDRAL.0>
47.3121

>  <SCORE.INTRA.POLAR>
0.50447

>  <SCORE.INTRA.POLAR.0>
-1.47808

>  <SCORE.INTRA.REPUL>
0

>  <SCORE.INTRA.REPUL.0>
0

>  <SCORE.INTRA.VDW>
-1.36086

>  <SCORE.INTRA.VDW.0>
-2.78316

>  <SCORE.INTRA.norm>
0.377518

>  <SCORE.RESTR>
0

>  <SCORE.RESTR.CAVITY>
0

>  <SCORE.RESTR.norm>
0

>  <SCORE.SYSTEM>
0

>  <SCORE.SYSTEM.CONST>
0

>  <SCORE.SYSTEM.DIHEDRAL>
0

>  <SCORE.SYSTEM.norm>
0

>  <SCORE.heavy>
50

>  <SCORE.norm>
0.44761

$$$$
