FB1.pdb
  RxDock  10062020573D
librxdock.so/0.1.0
 59 58  0  0  0  0  0  0  0  0999 V2000
  -11.0989   -0.9660   -3.5147 C   0  0  0  0  0  0
  -10.4403   -2.1953   -4.1365 C   0  0  0  0  0  0
   -9.8609   -1.8886   -5.5274 C   0  0  0  0  0  0
   -9.0415   -3.0587   -6.1267 C   0  0  0  0  0  0
   -8.3144   -2.7331   -7.4779 C   0  0  0  0  0  0
   -6.9348   -2.1165   -7.1505 C   0  0  0  0  0  0
   -8.1615   -3.9905   -8.4337 C   0  0  0  0  0  0
   -7.9001   -3.6944   -9.9862 C   0  0  0  0  0  0
   -8.2153   -4.7016  -11.1755 C   0  0  0  0  0  0
   -7.0355   -5.8131  -11.4820 C   0  0  0  0  0  0
   -7.6041   -7.2076  -11.2244 C   0  0  0  0  0  0
   -6.3822   -5.7621  -12.9365 C   0  0  0  0  0  0
   -7.0881   -6.3480  -14.2696 C   0  0  0  0  0  0
   -6.7745   -5.7907  -15.7004 C   0  0  0  0  0  0
   -7.7569   -6.1806  -16.8971 C   0  0  0  0  0  0
   -7.7877   -7.5966  -17.5961 C   0  0  0  0  0  0
   -8.0615   -8.8641  -16.7440 C   0  0  0  0  0  0
   -6.8731   -9.8929  -16.6078 C   0  0  0  0  0  0
   -6.9844  -10.9123  -15.4672 C   0  0  0  0  0  0
   -8.4022  -11.2931  -14.9544 C   0  0  0  0  0  0
   -9.2689  -10.2560  -14.1807 C   0  0  0  0  0  0
  -10.6357  -10.7325  -13.7092 C   0  0  0  0  0  0
   -8.5058   -9.6592  -13.0681 N   0  0  0  0  0  0
   -9.1589  -11.5937  -16.1548 O   0  0  0  0  0  0
   -6.7613  -10.6049  -17.8449 O   0  0  0  0  0  0
   -6.7034   -7.7324  -14.3134 O   0  0  0  0  0  0
   -8.6705   -2.5048  -10.3083 O   0  0  0  0  0  0
   -9.6953   -2.6530  -11.1876 C   0  0  0  0  0  0
  -10.0047   -3.6774  -11.7658 O   0  0  0  0  0  0
  -10.4560   -1.3575  -11.2547 C   0  0  0  0  0  0
  -11.8216   -1.5098  -11.9434 C   0  0  0  0  0  0
  -12.7873   -0.3700  -11.5943 C   0  0  0  0  0  0
  -14.2245   -0.8297  -11.6735 C   0  0  0  0  0  0
  -14.9923   -0.5040  -12.5724 O   0  0  0  0  0  0
  -14.5846   -1.6345  -10.6627 O   0  0  0  0  0  0
  -11.5356   -1.5126  -13.4514 C   0  0  0  0  0  0
  -10.6029   -2.1223  -13.9522 O   0  0  0  0  0  0
  -12.3666   -0.7483  -14.1733 O   0  0  0  0  0  0
   -7.1888   -4.9659   -7.8839 O   0  0  0  0  0  0
   -5.8374   -4.7209   -8.0623 C   0  0  0  0  0  0
   -5.3764   -3.8855   -8.8291 O   0  0  0  0  0  0
   -4.9598   -5.6209   -7.1825 C   0  0  0  0  0  0
   -4.8430   -5.1982   -5.6851 C   0  0  0  0  0  0
   -4.0912   -6.1378   -4.7247 C   0  0  0  0  0  0
   -3.1148   -7.0361   -5.4277 C   0  0  0  0  0  0
   -2.8808   -7.0348   -6.6284 O   0  0  0  0  0  0
   -2.4801   -7.8641   -4.5840 O   0  0  0  0  0  0
   -4.2890   -3.7854   -5.4627 C   0  0  0  0  0  0
   -3.9862   -3.3601   -4.3654 O   0  0  0  0  0  0
   -4.0552   -3.0716   -6.5839 O   0  0  0  0  0  0
   -7.5549  -10.0255  -13.0808 H   0  0  0  0  0  0
   -8.9033   -9.9888  -12.1856 H   0  0  0  0  0  0
  -10.0063  -11.9616  -15.8266 H   0  0  0  0  0  0
   -6.5006   -9.9710  -18.5382 H   0  0  0  0  0  0
   -7.2108   -8.2072  -13.6340 H   0  0  0  0  0  0
  -13.8553   -1.9269  -10.0829 H   0  0  0  0  0  0
  -12.6691   -1.1589  -15.0211 H   0  0  0  0  0  0
   -1.9643   -8.4882   -5.1370 H   0  0  0  0  0  0
   -3.5390   -2.2450   -6.4552 H   0  0  0  0  0  0
  1  2  1  0  0  0
  2  3  1  0  0  0
  3  4  1  0  0  0
  4  5  1  0  0  0
  5  6  1  0  0  0
  5  7  1  0  0  0
  7  8  1  0  0  0
  7 39  1  0  0  0
  8  9  1  0  0  0
  8 27  1  0  0  0
  9 10  1  0  0  0
 10 11  1  0  0  0
 10 12  1  0  0  0
 12 13  1  0  0  0
 13 14  1  0  0  0
 13 26  1  0  0  0
 14 15  1  0  0  0
 15 16  1  0  0  0
 16 17  1  0  0  0
 17 18  1  0  0  0
 18 19  1  0  0  0
 18 25  1  0  0  0
 19 20  1  0  0  0
 20 21  1  0  0  0
 20 24  1  0  0  0
 21 22  1  0  0  0
 21 23  1  0  0  0
 23 51  1  0  0  0
 23 52  1  0  0  0
 24 53  1  0  0  0
 25 54  1  0  0  0
 26 55  1  0  0  0
 27 28  1  0  0  0
 28 29  2  0  0  0
 28 30  1  0  0  0
 30 31  1  0  0  0
 31 32  1  0  0  0
 31 36  1  0  0  0
 32 33  1  0  0  0
 33 34  2  0  0  0
 33 35  1  0  0  0
 35 56  1  0  0  0
 36 37  2  0  0  0
 36 38  1  0  0  0
 38 57  1  0  0  0
 39 40  1  0  0  0
 40 41  2  0  0  0
 40 42  1  0  0  0
 42 43  1  0  0  0
 43 44  1  0  0  0
 43 48  1  0  0  0
 44 45  1  0  0  0
 45 46  2  0  0  0
 45 47  1  0  0  0
 47 58  1  0  0  0
 48 49  2  0  0  0
 48 50  1  0  0  0
 50 59  1  0  0  0
M  END
>  <AUTHOR>
    GENERATED BY OPEN BABEL 2.4.1

>  <CHROM.1>
173.34794627,-174.09440453,87.09593382,159.98048973,-157.31465427,-80.14000403
-84.44142886,-114.66890304,117.09571877,-77.39629684,153.42391619,-165.65191882
74.16031621,-75.23197459,58.03534757,-113.57693959,162.79306666,26.14282228
65.12269482,-68.84031245,-179.38941845,171.77444382,2.92144877,-2.55129172
-165.92932174,159.94498528,-151.97659578,42.36008569,-106.84144888,-8.54671678
-137.85583280,-13.02265282,-78.37812743,174.07378398,23.31321074,-171.02657911
1.83750583,172.33731468,-168.38275924,-8.13236901,-5.10083130,-10.75489610
1.38804766,-0.70665939,0.96197608

>  <COMPND>
    UNNAMED

>  <MASTER>
        0    0    0    0    0    0    0    0  109    0  109    0

>  <Name>
FB1.pdb

>  <RI>
0

>  <Rbt.Current_Directory>
/home/fc/tossine/FB1_39/p3/0_clust04

>  <Rbt.Executable>
rbdock/0.1.0

>  <Rbt.Library>
librxdock.so/0.1.0

>  <Rbt.Parameter_File>
/cluster/rxdock/data/scripts/dock.prm

>  <Rbt.Receptor>
rx_1.prm

>  <SCORE>
42.607

>  <SCORE.INTER>
3.48253

>  <SCORE.INTER.CONST>
1

>  <SCORE.INTER.POLAR>
-2.54021

>  <SCORE.INTER.REPUL>
0.871046

>  <SCORE.INTER.ROT>
32

>  <SCORE.INTER.VDW>
-29.636

>  <SCORE.INTER.norm>
0.0696506

>  <SCORE.INTRA>
38.98

>  <SCORE.INTRA.DIHEDRAL>
29.2971

>  <SCORE.INTRA.DIHEDRAL.0>
47.3121

>  <SCORE.INTRA.POLAR>
0.478077

>  <SCORE.INTRA.POLAR.0>
-1.47808

>  <SCORE.INTRA.REPUL>
0

>  <SCORE.INTRA.REPUL.0>
0

>  <SCORE.INTRA.VDW>
22.706

>  <SCORE.INTRA.VDW.0>
-2.78316

>  <SCORE.INTRA.norm>
0.779601

>  <SCORE.RESTR>
0.144492

>  <SCORE.RESTR.CAVITY>
0.144492

>  <SCORE.RESTR.norm>
0.00288984

>  <SCORE.SYSTEM>
0

>  <SCORE.SYSTEM.CONST>
0

>  <SCORE.SYSTEM.DIHEDRAL>
0

>  <SCORE.SYSTEM.norm>
0

>  <SCORE.heavy>
50

>  <SCORE.norm>
0.852141

$$$$
