FB1.pdb
  RxDock  10062021073D
librxdock.so/0.1.0
 59 58  0  0  0  0  0  0  0  0999 V2000
  -10.4717  -13.2232  -15.3419 C   0  0  0  0  0  0
  -10.2360  -11.9341  -14.5584 C   0  0  0  0  0  0
   -9.8445  -10.7694  -15.4828 C   0  0  0  0  0  0
   -9.3455   -9.5167  -14.7204 C   0  0  0  0  0  0
  -10.4638   -8.7052  -13.9778 C   0  0  0  0  0  0
  -10.8332   -9.4621  -12.6812 C   0  0  0  0  0  0
  -10.0537   -7.2052  -13.6620 C   0  0  0  0  0  0
   -8.9541   -6.9787  -12.5193 C   0  0  0  0  0  0
   -7.5589   -6.2443  -12.7248 C   0  0  0  0  0  0
   -6.5866   -6.2042  -11.3927 C   0  0  0  0  0  0
   -5.2285   -5.6353  -11.8003 C   0  0  0  0  0  0
   -7.1488   -5.3983  -10.1360 C   0  0  0  0  0  0
   -6.3682   -5.2567   -8.7256 C   0  0  0  0  0  0
   -4.9112   -4.6882   -8.6251 C   0  0  0  0  0  0
   -4.0481   -5.0417   -7.3293 C   0  0  0  0  0  0
   -4.4827   -4.6966   -5.8506 C   0  0  0  0  0  0
   -4.6714   -3.2135   -5.4356 C   0  0  0  0  0  0
   -5.8649   -2.9026   -4.4516 C   0  0  0  0  0  0
   -7.2774   -3.0268   -5.0362 C   0  0  0  0  0  0
   -7.8815   -1.7974   -5.7724 C   0  0  0  0  0  0
   -7.0248   -0.9822   -6.7857 C   0  0  0  0  0  0
   -5.8045   -0.2684   -6.2211 C   0  0  0  0  0  0
   -6.6591   -1.8105   -7.9505 N   0  0  0  0  0  0
   -8.9753   -2.3391   -6.5559 O   0  0  0  0  0  0
   -5.7565   -3.7884   -3.3320 O   0  0  0  0  0  0
   -7.1757   -4.3595   -7.9448 O   0  0  0  0  0  0
   -9.6101   -6.2176  -11.4692 O   0  0  0  0  0  0
   -9.9387   -4.9305  -11.7536 C   0  0  0  0  0  0
  -10.0547   -4.4460  -12.8631 O   0  0  0  0  0  0
  -10.2381   -4.2194  -10.4628 C   0  0  0  0  0  0
  -10.6666   -2.7592  -10.6789 C   0  0  0  0  0  0
  -11.7959   -2.3310   -9.7330 C   0  0  0  0  0  0
  -12.4206   -1.0309  -10.1833 C   0  0  0  0  0  0
  -12.3253   -0.5920  -11.3244 O   0  0  0  0  0  0
  -13.0953   -0.3977   -9.2124 O   0  0  0  0  0  0
   -9.4146   -1.9096  -10.4206 C   0  0  0  0  0  0
   -8.4270   -2.3360   -9.8416 O   0  0  0  0  0  0
   -9.5113   -0.6405  -10.8401 O   0  0  0  0  0  0
   -9.7212   -6.4679  -14.9053 O   0  0  0  0  0  0
  -10.7045   -6.3255  -15.8701 C   0  0  0  0  0  0
  -11.8721   -6.6651  -15.7298 O   0  0  0  0  0  0
  -10.1702   -5.6854  -17.1582 C   0  0  0  0  0  0
   -9.0718   -6.4969  -17.9127 C   0  0  0  0  0  0
   -7.7738   -6.8339  -17.1564 C   0  0  0  0  0  0
   -6.9544   -5.6195  -16.8275 C   0  0  0  0  0  0
   -6.9957   -4.5493  -17.4186 O   0  0  0  0  0  0
   -6.1510   -5.8134  -15.7704 O   0  0  0  0  0  0
   -9.5695   -7.7956  -18.5591 C   0  0  0  0  0  0
   -9.5018   -8.0066  -19.7540 O   0  0  0  0  0  0
   -9.9949   -8.7448  -17.6993 O   0  0  0  0  0  0
   -5.7665   -1.4886   -8.3223 H   0  0  0  0  0  0
   -7.3340   -1.6377   -8.6989 H   0  0  0  0  0  0
   -8.5382   -2.8411   -7.2758 H   0  0  0  0  0  0
   -6.4760   -3.5795   -2.7082 H   0  0  0  0  0  0
   -7.2854   -3.5366   -8.4501 H   0  0  0  0  0  0
  -13.2326   -0.9145   -8.3953 H   0  0  0  0  0  0
   -8.6601   -0.1366  -10.8217 H   0  0  0  0  0  0
   -6.4274   -6.6590  -15.3584 H   0  0  0  0  0  0
  -10.3715   -9.5510  -18.1169 H   0  0  0  0  0  0
  1  2  1  0  0  0
  2  3  1  0  0  0
  3  4  1  0  0  0
  4  5  1  0  0  0
  5  6  1  0  0  0
  5  7  1  0  0  0
  7  8  1  0  0  0
  7 39  1  0  0  0
  8  9  1  0  0  0
  8 27  1  0  0  0
  9 10  1  0  0  0
 10 11  1  0  0  0
 10 12  1  0  0  0
 12 13  1  0  0  0
 13 14  1  0  0  0
 13 26  1  0  0  0
 14 15  1  0  0  0
 15 16  1  0  0  0
 16 17  1  0  0  0
 17 18  1  0  0  0
 18 19  1  0  0  0
 18 25  1  0  0  0
 19 20  1  0  0  0
 20 21  1  0  0  0
 20 24  1  0  0  0
 21 22  1  0  0  0
 21 23  1  0  0  0
 23 51  1  0  0  0
 23 52  1  0  0  0
 24 53  1  0  0  0
 25 54  1  0  0  0
 26 55  1  0  0  0
 27 28  1  0  0  0
 28 29  2  0  0  0
 28 30  1  0  0  0
 30 31  1  0  0  0
 31 32  1  0  0  0
 31 36  1  0  0  0
 32 33  1  0  0  0
 33 34  2  0  0  0
 33 35  1  0  0  0
 35 56  1  0  0  0
 36 37  2  0  0  0
 36 38  1  0  0  0
 38 57  1  0  0  0
 39 40  1  0  0  0
 40 41  2  0  0  0
 40 42  1  0  0  0
 42 43  1  0  0  0
 43 44  1  0  0  0
 43 48  1  0  0  0
 44 45  1  0  0  0
 45 46  2  0  0  0
 45 47  1  0  0  0
 47 58  1  0  0  0
 48 49  2  0  0  0
 48 50  1  0  0  0
 50 59  1  0  0  0
M  END
>  <AUTHOR>
    GENERATED BY OPEN BABEL 2.4.1

>  <CHROM.1>
-169.43228637,-73.05336889,77.07354995,-71.50224027,121.13188715,61.06920542
-177.54660654,-68.86636601,172.70376603,178.92662617,55.63651093,-159.15031773
-56.06383314,-58.20766148,-62.01112251,142.17558412,-70.66756356,-85.95912279
178.21119919,44.38186632,-63.64120637,-71.68508143,-150.42880255,19.76324666
-178.17909510,140.76588449,-166.11407215,-16.19226830,19.90735112,-10.15074332
-169.77580626,6.57815199,62.74079345,-58.61806374,-66.35418534,119.77118570
-23.58692491,-10.91311757,175.91378361,-8.59628852,-5.09464262,-11.63075399
-1.87164343,-0.76846578,0.83076616

>  <COMPND>
    UNNAMED

>  <MASTER>
        0    0    0    0    0    0    0    0  109    0  109    0

>  <Name>
FB1.pdb

>  <RI>
0

>  <Rbt.Current_Directory>
/home/fc/tossine/FB1_39/p3/0_clust04

>  <Rbt.Executable>
rbdock/0.1.0

>  <Rbt.Library>
librxdock.so/0.1.0

>  <Rbt.Parameter_File>
/cluster/rxdock/data/scripts/dock.prm

>  <Rbt.Receptor>
rx_1.prm

>  <SCORE>
-5.49893

>  <SCORE.INTER>
6.1121

>  <SCORE.INTER.CONST>
1

>  <SCORE.INTER.POLAR>
-0.958769

>  <SCORE.INTER.REPUL>
0.757695

>  <SCORE.INTER.ROT>
32

>  <SCORE.INTER.VDW>
-31.8166

>  <SCORE.INTER.norm>
0.122242

>  <SCORE.INTRA>
-11.7709

>  <SCORE.INTRA.DIHEDRAL>
-7.43096

>  <SCORE.INTRA.DIHEDRAL.0>
47.3121

>  <SCORE.INTRA.POLAR>
-1.91608

>  <SCORE.INTRA.POLAR.0>
-1.47808

>  <SCORE.INTRA.REPUL>
0

>  <SCORE.INTRA.REPUL.0>
0

>  <SCORE.INTRA.VDW>
-1.54075

>  <SCORE.INTRA.VDW.0>
-2.78316

>  <SCORE.INTRA.norm>
-0.235418

>  <SCORE.RESTR>
0.159863

>  <SCORE.RESTR.CAVITY>
0.159863

>  <SCORE.RESTR.norm>
0.00319725

>  <SCORE.SYSTEM>
0

>  <SCORE.SYSTEM.CONST>
0

>  <SCORE.SYSTEM.DIHEDRAL>
0

>  <SCORE.SYSTEM.norm>
0

>  <SCORE.heavy>
50

>  <SCORE.norm>
-0.109979

$$$$
