FB1.pdb
  RxDock  10062019513D
librxdock.so/0.1.0
 59 58  0  0  0  0  0  0  0  0999 V2000
  -12.7172    3.9782  -10.6062 C   0  0  0  0  0  0
  -12.4083    2.8394  -11.5753 C   0  0  0  0  0  0
  -12.7891    1.4712  -10.9860 C   0  0  0  0  0  0
  -12.0041    0.2902  -11.6095 C   0  0  0  0  0  0
  -12.0800   -1.0534  -10.8036 C   0  0  0  0  0  0
  -13.5520   -1.5261  -10.7852 C   0  0  0  0  0  0
  -11.1269   -2.1875  -11.3722 C   0  0  0  0  0  0
  -10.9727   -3.5156  -10.4899 C   0  0  0  0  0  0
   -9.9793   -4.7156  -10.8085 C   0  0  0  0  0  0
   -8.4220   -4.2703  -11.1210 C   0  0  0  0  0  0
   -7.5274   -4.8249  -10.0135 C   0  0  0  0  0  0
   -7.8401   -4.6985  -12.5432 C   0  0  0  0  0  0
   -7.7146   -6.2306  -13.0486 C   0  0  0  0  0  0
   -8.9594   -7.0744  -13.4900 C   0  0  0  0  0  0
   -8.7289   -8.2992  -14.4878 C   0  0  0  0  0  0
   -8.0937   -9.6822  -14.0654 C   0  0  0  0  0  0
   -7.9091  -10.7958  -15.1299 C   0  0  0  0  0  0
   -6.7009  -10.6228  -16.1297 C   0  0  0  0  0  0
   -6.6967  -11.5440  -17.3561 C   0  0  0  0  0  0
   -6.7432  -13.0809  -17.1239 C   0  0  0  0  0  0
   -7.0632  -14.0496  -18.3006 C   0  0  0  0  0  0
   -8.3453  -13.7756  -19.0743 C   0  0  0  0  0  0
   -5.9106  -14.1655  -19.2141 N   0  0  0  0  0  0
   -5.3993  -13.4303  -16.7048 O   0  0  0  0  0  0
   -6.6924   -9.2643  -16.5814 O   0  0  0  0  0  0
   -6.8721   -6.1683  -14.2118 O   0  0  0  0  0  0
  -10.5910   -3.0766   -9.1580 O   0  0  0  0  0  0
  -10.9881   -3.8517   -8.1155 C   0  0  0  0  0  0
  -11.2240   -5.0443   -8.1546 O   0  0  0  0  0  0
  -10.9918   -3.0089   -6.8701 C   0  0  0  0  0  0
   -9.7730   -2.0763   -6.7847 C   0  0  0  0  0  0
   -9.7915   -1.1969   -5.5279 C   0  0  0  0  0  0
  -10.6246    0.0452   -5.7440 C   0  0  0  0  0  0
  -11.5192    0.1251   -6.5789 O   0  0  0  0  0  0
  -10.2934    1.0589   -4.9307 O   0  0  0  0  0  0
   -8.5414   -2.9923   -6.7667 C   0  0  0  0  0  0
   -7.7359   -3.0450   -7.6836 O   0  0  0  0  0  0
   -8.4467   -3.7703   -5.6796 O   0  0  0  0  0  0
  -11.4469   -2.4962  -12.7872 O   0  0  0  0  0  0
  -10.5166   -2.1693  -13.7598 C   0  0  0  0  0  0
   -9.3095   -2.0942  -13.5714 O   0  0  0  0  0  0
  -11.1666   -1.9063  -15.1246 C   0  0  0  0  0  0
  -10.7849   -2.9056  -16.2604 C   0  0  0  0  0  0
  -10.2501   -4.2913  -15.8552 C   0  0  0  0  0  0
   -9.4664   -4.9600  -16.9476 C   0  0  0  0  0  0
   -9.3378   -4.5440  -18.0908 O   0  0  0  0  0  0
   -8.8785   -6.0941  -16.5369 O   0  0  0  0  0  0
  -11.8836   -3.1323  -17.3062 C   0  0  0  0  0  0
  -13.0601   -3.2285  -17.0176 O   0  0  0  0  0  0
  -11.4730   -3.1122  -18.5916 O   0  0  0  0  0  0
   -6.2047  -14.6449  -20.0640 H   0  0  0  0  0  0
   -5.2175  -14.7852  -18.7886 H   0  0  0  0  0  0
   -5.4013  -14.4098  -16.6612 H   0  0  0  0  0  0
   -7.5144   -9.1046  -17.0808 H   0  0  0  0  0  0
   -6.5511   -7.0662  -14.3991 H   0  0  0  0  0  0
  -10.8101    1.8782   -5.0545 H   0  0  0  0  0  0
   -9.1839   -3.6579   -5.0294 H   0  0  0  0  0  0
   -8.3880   -6.4515  -17.3070 H   0  0  0  0  0  0
  -10.5007   -3.0479  -18.7207 H   0  0  0  0  0  0
  1  2  1  0  0  0
  2  3  1  0  0  0
  3  4  1  0  0  0
  4  5  1  0  0  0
  5  6  1  0  0  0
  5  7  1  0  0  0
  7  8  1  0  0  0
  7 39  1  0  0  0
  8  9  1  0  0  0
  8 27  1  0  0  0
  9 10  1  0  0  0
 10 11  1  0  0  0
 10 12  1  0  0  0
 12 13  1  0  0  0
 13 14  1  0  0  0
 13 26  1  0  0  0
 14 15  1  0  0  0
 15 16  1  0  0  0
 16 17  1  0  0  0
 17 18  1  0  0  0
 18 19  1  0  0  0
 18 25  1  0  0  0
 19 20  1  0  0  0
 20 21  1  0  0  0
 20 24  1  0  0  0
 21 22  1  0  0  0
 21 23  1  0  0  0
 23 51  1  0  0  0
 23 52  1  0  0  0
 24 53  1  0  0  0
 25 54  1  0  0  0
 26 55  1  0  0  0
 27 28  1  0  0  0
 28 29  2  0  0  0
 28 30  1  0  0  0
 30 31  1  0  0  0
 31 32  1  0  0  0
 31 36  1  0  0  0
 32 33  1  0  0  0
 33 34  2  0  0  0
 33 35  1  0  0  0
 35 56  1  0  0  0
 36 37  2  0  0  0
 36 38  1  0  0  0
 38 57  1  0  0  0
 39 40  1  0  0  0
 40 41  2  0  0  0
 40 42  1  0  0  0
 42 43  1  0  0  0
 43 44  1  0  0  0
 43 48  1  0  0  0
 44 45  1  0  0  0
 45 46  2  0  0  0
 45 47  1  0  0  0
 47 58  1  0  0  0
 48 49  2  0  0  0
 48 50  1  0  0  0
 50 59  1  0  0  0
M  END
>  <AUTHOR>
    GENERATED BY OPEN BABEL 2.4.1

>  <CHROM.1>
-156.11227765,164.92842223,63.31513951,171.14301981,-174.50613372,112.55487091
49.48086873,149.97621574,114.76997371,-60.10382946,73.81613686,155.91721889
163.49486597,74.84758329,-179.49253029,76.78347383,-167.16408311,-56.47904400
-63.78170775,166.12872816,-53.87417900,-173.54574683,-168.55120359,26.09533589
-41.39731981,178.85745091,-84.34511475,112.24917987,23.76211253,179.41148080
0.22592156,27.25509435,-115.54226029,21.58935424,-159.07302974,-39.98897793
-6.18596389,-179.47078121,6.09011011,-9.59760708,-4.71596976,-12.66055402
2.14552814,-1.07540678,1.22179669

>  <COMPND>
    UNNAMED

>  <MASTER>
        0    0    0    0    0    0    0    0  109    0  109    0

>  <Name>
FB1.pdb

>  <RI>
0

>  <Rbt.Current_Directory>
/home/fc/tossine/FB1_39/p3/0_clust04

>  <Rbt.Executable>
rbdock/0.1.0

>  <Rbt.Library>
librxdock.so/0.1.0

>  <Rbt.Parameter_File>
/cluster/rxdock/data/scripts/dock.prm

>  <Rbt.Receptor>
rx_0.prm

>  <SCORE>
0.323697

>  <SCORE.INTER>
-5.02426

>  <SCORE.INTER.CONST>
1

>  <SCORE.INTER.POLAR>
-1.86065

>  <SCORE.INTER.REPUL>
0.293634

>  <SCORE.INTER.ROT>
32

>  <SCORE.INTER.VDW>
-37.5662

>  <SCORE.INTER.norm>
-0.100485

>  <SCORE.INTRA>
5.34642

>  <SCORE.INTRA.DIHEDRAL>
8.39068

>  <SCORE.INTRA.DIHEDRAL.0>
47.3121

>  <SCORE.INTRA.POLAR>
1.1023

>  <SCORE.INTRA.POLAR.0>
-1.47808

>  <SCORE.INTRA.REPUL>
0

>  <SCORE.INTRA.REPUL.0>
0

>  <SCORE.INTRA.VDW>
-2.59672

>  <SCORE.INTRA.VDW.0>
-2.78316

>  <SCORE.INTRA.norm>
0.106928

>  <SCORE.RESTR>
0.00153446

>  <SCORE.RESTR.CAVITY>
0.00153446

>  <SCORE.RESTR.norm>
3.06891e-05

>  <SCORE.SYSTEM>
0

>  <SCORE.SYSTEM.CONST>
0

>  <SCORE.SYSTEM.DIHEDRAL>
0

>  <SCORE.SYSTEM.norm>
0

>  <SCORE.heavy>
50

>  <SCORE.norm>
0.00647393

$$$$
