FB1.pdb
  RxDock  09132003333D
librxdock.so/0.1.0
 59 58  0  0  0  0  0  0  0  0999 V2000
   -3.8997   -1.4105   -7.7419 C   0  0  0  0  0  0
   -4.6674   -2.7298   -7.7046 C   0  0  0  0  0  0
   -5.8798   -2.6566   -6.7616 C   0  0  0  0  0  0
   -6.7933   -1.4334   -7.0240 C   0  0  0  0  0  0
   -7.6573   -1.5210   -8.3303 C   0  0  0  0  0  0
   -6.7004   -1.6556   -9.5373 C   0  0  0  0  0  0
   -8.7161   -2.7027   -8.3111 C   0  0  0  0  0  0
   -8.1871   -4.1579   -8.7220 C   0  0  0  0  0  0
   -7.0247   -4.9515   -7.9823 C   0  0  0  0  0  0
   -5.9961   -5.7730   -8.9765 C   0  0  0  0  0  0
   -5.4030   -4.7875   -9.9820 C   0  0  0  0  0  0
   -4.8204   -6.5793   -8.2605 C   0  0  0  0  0  0
   -3.8127   -5.9368   -7.1695 C   0  0  0  0  0  0
   -4.3232   -5.1276   -5.9283 C   0  0  0  0  0  0
   -4.2668   -5.8260   -4.4936 C   0  0  0  0  0  0
   -3.0089   -5.7948   -3.5390 C   0  0  0  0  0  0
   -2.1761   -4.4917   -3.4138 C   0  0  0  0  0  0
   -2.9003   -3.2516   -2.7604 C   0  0  0  0  0  0
   -3.2438   -3.3729   -1.2705 C   0  0  0  0  0  0
   -4.0137   -2.2035   -0.5938 C   0  0  0  0  0  0
   -5.5398   -2.0135   -0.8397 C   0  0  0  0  0  0
   -6.1627   -0.7414   -0.2820 C   0  0  0  0  0  0
   -5.8662   -2.1779   -2.2689 N   0  0  0  0  0  0
   -3.8914   -2.4575    0.8290 O   0  0  0  0  0  0
   -2.0628   -2.1048   -2.9421 O   0  0  0  0  0  0
   -3.1001   -7.0576   -6.6195 O   0  0  0  0  0  0
   -9.3355   -5.0451   -8.6428 O   0  0  0  0  0  0
  -10.1405   -5.1111   -9.7350 C   0  0  0  0  0  0
  -11.3126   -5.4361   -9.7463 O   0  0  0  0  0  0
   -9.3682   -4.6152  -10.9262 C   0  0  0  0  0  0
   -8.0894   -5.4291  -11.1812 C   0  0  0  0  0  0
   -8.3658   -6.9317  -11.3194 C   0  0  0  0  0  0
   -7.2074   -7.6403  -11.9821 C   0  0  0  0  0  0
   -6.1467   -7.8821  -11.4162 O   0  0  0  0  0  0
   -7.4494   -7.9843  -13.2557 O   0  0  0  0  0  0
   -7.4946   -4.8822  -12.4862 C   0  0  0  0  0  0
   -6.6190   -4.0308  -12.5148 O   0  0  0  0  0  0
   -8.0505   -5.3808  -13.5990 O   0  0  0  0  0  0
   -9.4683   -2.7270   -7.0330 O   0  0  0  0  0  0
  -10.8507   -2.6579   -7.0804 C   0  0  0  0  0  0
  -11.4980   -2.3269   -8.0652 O   0  0  0  0  0  0
  -11.5008   -3.0471   -5.7461 C   0  0  0  0  0  0
  -12.1309   -1.8745   -4.9322 C   0  0  0  0  0  0
  -11.5402   -0.4650   -5.1189 C   0  0  0  0  0  0
  -10.0418   -0.4650   -5.2153 C   0  0  0  0  0  0
   -9.3069   -1.3930   -4.9066 O   0  0  0  0  0  0
   -9.5593    0.6856   -5.7089 O   0  0  0  0  0  0
  -13.6533   -1.7493   -5.0688 C   0  0  0  0  0  0
  -14.2099   -0.6974   -5.3146 O   0  0  0  0  0  0
  -14.3383   -2.9103   -5.0041 O   0  0  0  0  0  0
   -5.5279   -1.3664   -2.7843 H   0  0  0  0  0  0
   -6.8827   -2.1534   -2.3767 H   0  0  0  0  0  0
   -2.9353   -2.6241    0.9686 H   0  0  0  0  0  0
   -1.9412   -1.9655   -3.8994 H   0  0  0  0  0  0
   -3.7534   -7.6915   -6.2789 H   0  0  0  0  0  0
   -7.8534   -8.8645  -13.3799 H   0  0  0  0  0  0
   -7.7177   -4.9785  -14.4394 H   0  0  0  0  0  0
   -8.6127    0.7250   -5.4566 H   0  0  0  0  0  0
  -15.2047   -2.9128   -5.4683 H   0  0  0  0  0  0
  1  2  1  0  0  0
  2  3  1  0  0  0
  3  4  1  0  0  0
  4  5  1  0  0  0
  5  6  1  0  0  0
  5  7  1  0  0  0
  7  8  1  0  0  0
  7 39  1  0  0  0
  8  9  1  0  0  0
  8 27  1  0  0  0
  9 10  1  0  0  0
 10 11  1  0  0  0
 10 12  1  0  0  0
 12 13  1  0  0  0
 13 14  1  0  0  0
 13 26  1  0  0  0
 14 15  1  0  0  0
 15 16  1  0  0  0
 16 17  1  0  0  0
 17 18  1  0  0  0
 18 19  1  0  0  0
 18 25  1  0  0  0
 19 20  1  0  0  0
 20 21  1  0  0  0
 20 24  1  0  0  0
 21 22  1  0  0  0
 21 23  1  0  0  0
 23 51  1  0  0  0
 23 52  1  0  0  0
 24 53  1  0  0  0
 25 54  1  0  0  0
 26 55  1  0  0  0
 27 28  1  0  0  0
 28 29  2  0  0  0
 28 30  1  0  0  0
 30 31  1  0  0  0
 31 32  1  0  0  0
 31 36  1  0  0  0
 32 33  1  0  0  0
 33 34  2  0  0  0
 33 35  1  0  0  0
 35 56  1  0  0  0
 36 37  2  0  0  0
 36 38  1  0  0  0
 38 57  1  0  0  0
 39 40  1  0  0  0
 40 41  2  0  0  0
 40 42  1  0  0  0
 42 43  1  0  0  0
 43 44  1  0  0  0
 43 48  1  0  0  0
 44 45  1  0  0  0
 45 46  2  0  0  0
 45 47  1  0  0  0
 47 58  1  0  0  0
 48 49  2  0  0  0
 48 50  1  0  0  0
 50 59  1  0  0  0
M  END
>  <AUTHOR>
    GENERATED BY OPEN BABEL 2.4.1

>  <CHROM.1>
50.87405948,72.70776581,-59.73195297,-83.09431989,59.40383974,123.83591939
-140.18004590,85.15664099,56.09614432,-51.47268010,50.31922474,105.60212426
-55.47316898,87.04826097,39.73989105,65.71216517,67.54323228,-177.36545843
60.29334553,75.91701144,-172.28155307,49.14963035,-72.52392664,-155.82880864
58.66591198,54.79265921,162.28230740,95.77681307,74.79807358,-89.40597040
175.48255330,-14.52267039,108.00460949,-27.69208344,-40.26997451,-131.31046202
-14.94207472,161.06249205,-153.91920518,-7.34794139,-3.65430731,-6.92925013
-1.16246680,0.33815249,-2.02564017

>  <COMPND>
    UNNAMED

>  <MASTER>
        0    0    0    0    0    0    0    0  109    0  109    0

>  <Name>
FB1.pdb

>  <RI>
0

>  <Rbt.Current_Directory>
/home/fc/tossine/FB1_39/p3/0_clust04

>  <Rbt.Executable>
rbdock/0.1.0

>  <Rbt.Library>
librxdock.so/0.1.0

>  <Rbt.Parameter_File>
/cluster/rxdock/data/scripts/dock.prm

>  <Rbt.Receptor>
rx_3.prm

>  <SCORE>
107.021

>  <SCORE.INTER>
59.3081

>  <SCORE.INTER.CONST>
1

>  <SCORE.INTER.POLAR>
-0.858431

>  <SCORE.INTER.REPUL>
1.26035

>  <SCORE.INTER.ROT>
32

>  <SCORE.INTER.VDW>
18.525

>  <SCORE.INTER.norm>
1.18616

>  <SCORE.INTRA>
36.6862

>  <SCORE.INTRA.DIHEDRAL>
32.6605

>  <SCORE.INTRA.DIHEDRAL.0>
47.3121

>  <SCORE.INTRA.POLAR>
1.47808

>  <SCORE.INTRA.POLAR.0>
-1.47808

>  <SCORE.INTRA.REPUL>
0

>  <SCORE.INTRA.REPUL.0>
0

>  <SCORE.INTRA.VDW>
15.3305

>  <SCORE.INTRA.VDW.0>
-2.78316

>  <SCORE.INTRA.norm>
0.733724

>  <SCORE.RESTR>
11.0264

>  <SCORE.RESTR.CAVITY>
11.0264

>  <SCORE.RESTR.norm>
0.220527

>  <SCORE.SYSTEM>
0

>  <SCORE.SYSTEM.CONST>
0

>  <SCORE.SYSTEM.DIHEDRAL>
0

>  <SCORE.SYSTEM.norm>
0

>  <SCORE.heavy>
50

>  <SCORE.norm>
2.14041

$$$$
