FB1.pdb
  RxDock  10062021413D
librxdock.so/0.1.0
 59 58  0  0  0  0  0  0  0  0999 V2000
   -8.6050   -5.2395  -15.5680 C   0  0  0  0  0  0
  -10.0537   -5.4258  -15.1230 C   0  0  0  0  0  0
  -10.6923   -4.0954  -14.6913 C   0  0  0  0  0  0
  -10.5473   -3.8035  -13.1769 C   0  0  0  0  0  0
   -9.0705   -3.6493  -12.6712 C   0  0  0  0  0  0
   -8.6827   -2.1549  -12.7533 C   0  0  0  0  0  0
   -8.8401   -4.2158  -11.2070 C   0  0  0  0  0  0
   -7.3516   -4.6736  -10.8319 C   0  0  0  0  0  0
   -6.6845   -4.5298   -9.3957 C   0  0  0  0  0  0
   -7.7407   -4.2586   -8.1579 C   0  0  0  0  0  0
   -7.8899   -5.5502   -7.3557 C   0  0  0  0  0  0
   -7.3771   -3.0567   -7.1739 C   0  0  0  0  0  0
   -6.5432   -1.7423   -7.6161 C   0  0  0  0  0  0
   -4.9844   -1.7516   -7.7786 C   0  0  0  0  0  0
   -4.2750   -3.1186   -8.1997 C   0  0  0  0  0  0
   -4.3852   -4.4655   -7.3823 C   0  0  0  0  0  0
   -3.4970   -5.6747   -7.7776 C   0  0  0  0  0  0
   -2.0686   -5.7485   -7.1116 C   0  0  0  0  0  0
   -1.8072   -6.9511   -6.1961 C   0  0  0  0  0  0
   -2.9105   -7.3560   -5.1777 C   0  0  0  0  0  0
   -3.6497   -6.2718   -4.3390 C   0  0  0  0  0  0
   -2.8585   -5.0135   -4.0103 C   0  0  0  0  0  0
   -4.9503   -5.9331   -4.9473 N   0  0  0  0  0  0
   -3.9445   -7.9770   -5.9834 O   0  0  0  0  0  0
   -1.0926   -5.7537   -8.1590 O   0  0  0  0  0  0
   -7.0539   -1.4005   -8.9157 O   0  0  0  0  0  0
   -7.2787   -6.0960  -11.1216 O   0  0  0  0  0  0
   -7.0113   -6.4512  -12.4052 C   0  0  0  0  0  0
   -6.4216   -5.7790  -13.2297 O   0  0  0  0  0  0
   -7.4782   -7.8652  -12.6149 C   0  0  0  0  0  0
   -8.9053   -7.9379  -13.1810 C   0  0  0  0  0  0
   -9.2179   -9.2988  -13.8164 C   0  0  0  0  0  0
   -8.4447   -9.4914  -15.1003 C   0  0  0  0  0  0
   -8.6084   -8.8014  -16.1007 O   0  0  0  0  0  0
   -7.5551  -10.4935  -15.0431 O   0  0  0  0  0  0
   -9.8438   -7.6849  -11.9930 C   0  0  0  0  0  0
  -10.2320   -8.5725  -11.2490 O   0  0  0  0  0  0
  -10.2447   -6.4124  -11.8663 O   0  0  0  0  0  0
   -9.4148   -3.3075  -10.1849 O   0  0  0  0  0  0
  -10.7461   -3.4650   -9.8370 C   0  0  0  0  0  0
  -11.1791   -4.3656   -9.1300 O   0  0  0  0  0  0
  -11.6401   -2.3733  -10.4397 C   0  0  0  0  0  0
  -11.6607   -1.0147   -9.6727 C   0  0  0  0  0  0
  -12.6442    0.0699  -10.1489 C   0  0  0  0  0  0
  -12.1969    0.7555  -11.4076 C   0  0  0  0  0  0
  -11.8932    1.9363  -11.5077 O   0  0  0  0  0  0
  -12.1392   -0.0812  -12.4550 O   0  0  0  0  0  0
  -11.8281   -1.1425   -8.1536 C   0  0  0  0  0  0
  -11.6440   -2.1835   -7.5543 O   0  0  0  0  0  0
  -12.0918    0.0089   -7.5008 O   0  0  0  0  0  0
   -5.6966   -6.3566   -4.3975 H   0  0  0  0  0  0
   -5.0097   -6.3836   -5.8632 H   0  0  0  0  0  0
   -3.5315   -8.7982   -6.3246 H   0  0  0  0  0  0
   -0.3361   -6.2951   -7.8672 H   0  0  0  0  0  0
   -7.5399   -2.1687   -9.2594 H   0  0  0  0  0  0
   -6.9119  -10.4382  -14.3105 H   0  0  0  0  0  0
  -10.9828   -6.2774  -11.2215 H   0  0  0  0  0  0
  -12.7940   -0.7908  -12.2846 H   0  0  0  0  0  0
  -12.0539    0.8219   -8.0520 H   0  0  0  0  0  0
  1  2  1  0  0  0
  2  3  1  0  0  0
  3  4  1  0  0  0
  4  5  1  0  0  0
  5  6  1  0  0  0
  5  7  1  0  0  0
  7  8  1  0  0  0
  7 39  1  0  0  0
  8  9  1  0  0  0
  8 27  1  0  0  0
  9 10  1  0  0  0
 10 11  1  0  0  0
 10 12  1  0  0  0
 12 13  1  0  0  0
 13 14  1  0  0  0
 13 26  1  0  0  0
 14 15  1  0  0  0
 15 16  1  0  0  0
 16 17  1  0  0  0
 17 18  1  0  0  0
 18 19  1  0  0  0
 18 25  1  0  0  0
 19 20  1  0  0  0
 20 21  1  0  0  0
 20 24  1  0  0  0
 21 22  1  0  0  0
 21 23  1  0  0  0
 23 51  1  0  0  0
 23 52  1  0  0  0
 24 53  1  0  0  0
 25 54  1  0  0  0
 26 55  1  0  0  0
 27 28  1  0  0  0
 28 29  2  0  0  0
 28 30  1  0  0  0
 30 31  1  0  0  0
 31 32  1  0  0  0
 31 36  1  0  0  0
 32 33  1  0  0  0
 33 34  2  0  0  0
 33 35  1  0  0  0
 35 56  1  0  0  0
 36 37  2  0  0  0
 36 38  1  0  0  0
 38 57  1  0  0  0
 39 40  1  0  0  0
 40 41  2  0  0  0
 40 42  1  0  0  0
 42 43  1  0  0  0
 43 44  1  0  0  0
 43 48  1  0  0  0
 44 45  1  0  0  0
 45 46  2  0  0  0
 45 47  1  0  0  0
 47 58  1  0  0  0
 48 49  2  0  0  0
 48 50  1  0  0  0
 50 59  1  0  0  0
M  END
>  <AUTHOR>
    GENERATED BY OPEN BABEL 2.4.1

>  <CHROM.1>
-91.71622012,62.52703844,91.41434678,155.10641040,145.57301786,87.28083259
16.47447580,83.92448948,104.99653788,29.21020597,-78.24428742,29.20934525
-16.14864783,-58.07245191,-171.54252757,88.14870887,116.54679842,-44.43451353
-147.07487707,-43.92311261,-29.88067557,66.56659078,105.24327218,25.19560234
93.66792744,161.33486891,-70.00247784,-86.80369484,-64.57054133,-54.85432524
168.39805658,75.08372183,-81.15316496,-174.05085185,-75.61275729,16.67858101
-115.23747069,27.53899412,-6.26912616,-7.95481067,-4.60385521,-10.14570975
-2.89502185,-0.68266098,0.79802584

>  <COMPND>
    UNNAMED

>  <MASTER>
        0    0    0    0    0    0    0    0  109    0  109    0

>  <Name>
FB1.pdb

>  <RI>
0

>  <Rbt.Current_Directory>
/home/fc/tossine/FB1_39/p3/0_clust04

>  <Rbt.Executable>
rbdock/0.1.0

>  <Rbt.Library>
librxdock.so/0.1.0

>  <Rbt.Parameter_File>
/cluster/rxdock/data/scripts/dock.prm

>  <Rbt.Receptor>
rx_2.prm

>  <SCORE>
71.9034

>  <SCORE.INTER>
25.7754

>  <SCORE.INTER.CONST>
1

>  <SCORE.INTER.POLAR>
-2.13563

>  <SCORE.INTER.REPUL>
2.65496

>  <SCORE.INTER.ROT>
32

>  <SCORE.INTER.VDW>
-17.6383

>  <SCORE.INTER.norm>
0.515509

>  <SCORE.INTRA>
41.5194

>  <SCORE.INTRA.DIHEDRAL>
75.7766

>  <SCORE.INTRA.DIHEDRAL.0>
47.3121

>  <SCORE.INTRA.POLAR>
0.879445

>  <SCORE.INTRA.POLAR.0>
-1.47808

>  <SCORE.INTRA.REPUL>
0

>  <SCORE.INTRA.REPUL.0>
0

>  <SCORE.INTRA.VDW>
0.640965

>  <SCORE.INTRA.VDW.0>
-2.78316

>  <SCORE.INTRA.norm>
0.830388

>  <SCORE.RESTR>
4.60857

>  <SCORE.RESTR.CAVITY>
4.60857

>  <SCORE.RESTR.norm>
0.0921714

>  <SCORE.SYSTEM>
0

>  <SCORE.SYSTEM.CONST>
0

>  <SCORE.SYSTEM.DIHEDRAL>
0

>  <SCORE.SYSTEM.norm>
0

>  <SCORE.heavy>
50

>  <SCORE.norm>
1.43807

$$$$
