FB1.pdb
  RxDock  10062021483D
librxdock.so/0.1.0
 59 58  0  0  0  0  0  0  0  0999 V2000
  -11.7946   -0.2402   -6.5257 C   0  0  0  0  0  0
  -10.7477   -1.3409   -6.3717 C   0  0  0  0  0  0
  -11.1106   -2.5905   -7.1908 C   0  0  0  0  0  0
  -10.9575   -2.3928   -8.7196 C   0  0  0  0  0  0
   -9.7377   -3.1391   -9.3643 C   0  0  0  0  0  0
   -8.9771   -2.1385  -10.2648 C   0  0  0  0  0  0
   -8.7635   -3.7979   -8.2991 C   0  0  0  0  0  0
   -8.0938   -5.1979   -8.6965 C   0  0  0  0  0  0
   -7.5534   -5.5757  -10.1433 C   0  0  0  0  0  0
   -8.5672   -6.5132  -11.0459 C   0  0  0  0  0  0
   -9.9876   -5.9691  -10.9020 C   0  0  0  0  0  0
   -8.2030   -6.6553  -12.5925 C   0  0  0  0  0  0
   -8.7762   -5.6839  -13.7529 C   0  0  0  0  0  0
   -8.5384   -5.9641  -15.2764 C   0  0  0  0  0  0
   -8.9285   -4.8257  -16.3257 C   0  0  0  0  0  0
  -10.3709   -4.1960  -16.4585 C   0  0  0  0  0  0
  -11.1779   -3.8566  -15.1775 C   0  0  0  0  0  0
  -11.0918   -2.3676  -14.6630 C   0  0  0  0  0  0
  -10.4092   -2.1561  -13.3059 C   0  0  0  0  0  0
  -11.3057   -2.0259  -12.0420 C   0  0  0  0  0  0
  -12.5071   -1.0352  -12.0225 C   0  0  0  0  0  0
  -13.2573   -0.9057  -10.7043 C   0  0  0  0  0  0
  -12.1043    0.2894  -12.5322 N   0  0  0  0  0  0
  -11.8991   -3.3389  -11.8753 O   0  0  0  0  0  0
  -10.3925   -1.5997  -15.6484 O   0  0  0  0  0  0
  -10.2036   -5.7099  -13.5849 O   0  0  0  0  0  0
   -6.9391   -5.3569   -7.8282 O   0  0  0  0  0  0
   -7.1828   -5.5295   -6.5031 C   0  0  0  0  0  0
   -8.1812   -6.0225   -6.0135 O   0  0  0  0  0  0
   -5.9632   -5.1007   -5.7349 C   0  0  0  0  0  0
   -6.3122   -4.4673   -4.3787 C   0  0  0  0  0  0
   -5.0671   -4.1341   -3.5467 C   0  0  0  0  0  0
   -4.4256   -5.3881   -2.9995 C   0  0  0  0  0  0
   -3.8449   -6.2127   -3.6970 O   0  0  0  0  0  0
   -4.5498   -5.5154   -1.6701 O   0  0  0  0  0  0
   -7.0883   -3.1827   -4.7002 C   0  0  0  0  0  0
   -6.5425   -2.1228   -4.9669 O   0  0  0  0  0  0
   -8.4202   -3.3055   -4.6163 O   0  0  0  0  0  0
   -7.7584   -2.8200   -7.8159 O   0  0  0  0  0  0
   -6.5156   -2.7960   -8.4265 C   0  0  0  0  0  0
   -6.2776   -3.2470   -9.5394 O   0  0  0  0  0  0
   -5.4464   -2.1327   -7.5484 C   0  0  0  0  0  0
   -4.0877   -2.8928   -7.4449 C   0  0  0  0  0  0
   -4.0096   -4.3169   -8.0250 C   0  0  0  0  0  0
   -3.0020   -5.1814   -7.3237 C   0  0  0  0  0  0
   -2.3170   -6.0483   -7.8488 O   0  0  0  0  0  0
   -2.9009   -4.8948   -6.0168 O   0  0  0  0  0  0
   -2.8801   -2.1168   -7.9851 C   0  0  0  0  0  0
   -1.8705   -2.6618   -8.3856 O   0  0  0  0  0  0
   -3.0488   -0.7819   -8.0894 O   0  0  0  0  0  0
  -11.6160    0.7965  -11.7954 H   0  0  0  0  0  0
  -12.9468    0.8387  -12.7162 H   0  0  0  0  0  0
  -11.1982   -3.8737  -11.4463 H   0  0  0  0  0  0
  -10.9412   -1.5661  -16.4536 H   0  0  0  0  0  0
  -10.4962   -6.6350  -13.6407 H   0  0  0  0  0  0
   -4.1630   -6.3281   -1.2915 H   0  0  0  0  0  0
   -8.9276   -2.6019   -5.0920 H   0  0  0  0  0  0
   -3.6565   -4.3095   -5.7979 H   0  0  0  0  0  0
   -3.8551   -0.4974   -8.5743 H   0  0  0  0  0  0
  1  2  1  0  0  0
  2  3  1  0  0  0
  3  4  1  0  0  0
  4  5  1  0  0  0
  5  6  1  0  0  0
  5  7  1  0  0  0
  7  8  1  0  0  0
  7 39  1  0  0  0
  8  9  1  0  0  0
  8 27  1  0  0  0
  9 10  1  0  0  0
 10 11  1  0  0  0
 10 12  1  0  0  0
 12 13  1  0  0  0
 13 14  1  0  0  0
 13 26  1  0  0  0
 14 15  1  0  0  0
 15 16  1  0  0  0
 16 17  1  0  0  0
 17 18  1  0  0  0
 18 19  1  0  0  0
 18 25  1  0  0  0
 19 20  1  0  0  0
 20 21  1  0  0  0
 20 24  1  0  0  0
 21 22  1  0  0  0
 21 23  1  0  0  0
 23 51  1  0  0  0
 23 52  1  0  0  0
 24 53  1  0  0  0
 25 54  1  0  0  0
 26 55  1  0  0  0
 27 28  1  0  0  0
 28 29  2  0  0  0
 28 30  1  0  0  0
 30 31  1  0  0  0
 31 32  1  0  0  0
 31 36  1  0  0  0
 32 33  1  0  0  0
 33 34  2  0  0  0
 33 35  1  0  0  0
 35 56  1  0  0  0
 36 37  2  0  0  0
 36 38  1  0  0  0
 38 57  1  0  0  0
 39 40  1  0  0  0
 40 41  2  0  0  0
 40 42  1  0  0  0
 42 43  1  0  0  0
 43 44  1  0  0  0
 43 48  1  0  0  0
 44 45  1  0  0  0
 45 46  2  0  0  0
 45 47  1  0  0  0
 47 58  1  0  0  0
 48 49  2  0  0  0
 48 50  1  0  0  0
 50 59  1  0  0  0
M  END
>  <AUTHOR>
    GENERATED BY OPEN BABEL 2.4.1

>  <CHROM.1>
71.41974338,107.78455324,-131.78130067,144.08644714,39.30288493,-95.32055666
-100.21744789,67.09798051,43.69473432,-91.67384471,-172.16784956,-169.85118851
-56.80822548,-57.13336891,41.73275093,95.79798377,-114.38742809,-97.46361924
66.26608545,-50.19023876,-175.53414235,79.79409534,-79.50250802,27.73500506
146.17933921,175.34777618,-72.62375270,-83.82937472,69.69301549,178.57940963
-161.08499788,20.37894930,133.98602255,-9.61538670,-151.22813214,-155.39526307
-145.70338299,11.84021332,-51.44927869,-7.79852777,-3.68822315,-9.08149485
2.27986581,0.45447508,-1.79495992

>  <COMPND>
    UNNAMED

>  <MASTER>
        0    0    0    0    0    0    0    0  109    0  109    0

>  <Name>
FB1.pdb

>  <RI>
0

>  <Rbt.Current_Directory>
/home/fc/tossine/FB1_39/p3/0_clust04

>  <Rbt.Executable>
rbdock/0.1.0

>  <Rbt.Library>
librxdock.so/0.1.0

>  <Rbt.Parameter_File>
/cluster/rxdock/data/scripts/dock.prm

>  <Rbt.Receptor>
rx_2.prm

>  <SCORE>
70.1311

>  <SCORE.INTER>
28.5754

>  <SCORE.INTER.CONST>
1

>  <SCORE.INTER.POLAR>
-1.0336

>  <SCORE.INTER.REPUL>
1.25957

>  <SCORE.INTER.ROT>
32

>  <SCORE.INTER.VDW>
-11.6082

>  <SCORE.INTER.norm>
0.571508

>  <SCORE.INTRA>
37.7233

>  <SCORE.INTRA.DIHEDRAL>
51.2404

>  <SCORE.INTRA.DIHEDRAL.0>
47.3121

>  <SCORE.INTRA.POLAR>
1.47808

>  <SCORE.INTRA.POLAR.0>
-1.47808

>  <SCORE.INTRA.REPUL>
0

>  <SCORE.INTRA.REPUL.0>
0

>  <SCORE.INTRA.VDW>
7.07766

>  <SCORE.INTRA.VDW.0>
-2.78316

>  <SCORE.INTRA.norm>
0.754466

>  <SCORE.RESTR>
3.83238

>  <SCORE.RESTR.CAVITY>
3.83238

>  <SCORE.RESTR.norm>
0.0766476

>  <SCORE.SYSTEM>
0

>  <SCORE.SYSTEM.CONST>
0

>  <SCORE.SYSTEM.DIHEDRAL>
0

>  <SCORE.SYSTEM.norm>
0

>  <SCORE.heavy>
50

>  <SCORE.norm>
1.40262

$$$$
