FB1.pdb
  RxDock  10062022503D
librxdock.so/0.1.0
 59 58  0  0  0  0  0  0  0  0999 V2000
  -10.8915   -1.7696  -11.7048 C   0  0  0  0  0  0
  -10.7869   -2.0435  -10.2064 C   0  0  0  0  0  0
  -10.6227   -3.5437   -9.9120 C   0  0  0  0  0  0
   -9.3550   -4.1633  -10.5513 C   0  0  0  0  0  0
   -7.9996   -3.7148   -9.9015 C   0  0  0  0  0  0
   -7.7405   -2.2402  -10.2878 C   0  0  0  0  0  0
   -7.9591   -3.9043   -8.3266 C   0  0  0  0  0  0
   -6.5367   -4.2445   -7.6729 C   0  0  0  0  0  0
   -5.5989   -3.1993   -6.9271 C   0  0  0  0  0  0
   -3.9801   -3.4390   -7.1354 C   0  0  0  0  0  0
   -3.4393   -2.3356   -8.0433 C   0  0  0  0  0  0
   -3.1035   -3.5143   -5.8048 C   0  0  0  0  0  0
   -3.1806   -2.4317   -4.6045 C   0  0  0  0  0  0
   -4.5417   -1.9369   -4.0056 C   0  0  0  0  0  0
   -5.3210   -2.9004   -2.9989 C   0  0  0  0  0  0
   -5.1150   -2.9034   -1.4330 C   0  0  0  0  0  0
   -5.6102   -1.6955   -0.5943 C   0  0  0  0  0  0
   -6.3574   -2.0317    0.7540 C   0  0  0  0  0  0
   -6.8025   -0.8331    1.6011 C   0  0  0  0  0  0
   -8.0598   -0.0372    1.1494 C   0  0  0  0  0  0
   -8.3213    1.4010    1.6867 C   0  0  0  0  0  0
   -8.1612    1.6032    3.1870 C   0  0  0  0  0  0
   -7.5329    2.3948    0.9336 N   0  0  0  0  0  0
   -7.8997    0.1207   -0.2835 O   0  0  0  0  0  0
   -7.5113   -2.8171    0.4355 O   0  0  0  0  0  0
   -2.4892   -3.0486   -3.5054 O   0  0  0  0  0  0
   -6.7819   -5.2790   -6.6819 O   0  0  0  0  0  0
   -5.8930   -5.3769   -5.6594 C   0  0  0  0  0  0
   -6.0441   -4.9482   -4.5313 O   0  0  0  0  0  0
   -4.7218   -6.1979   -6.1239 C   0  0  0  0  0  0
   -4.1973   -7.1472   -5.0347 C   0  0  0  0  0  0
   -3.0788   -8.0657   -5.5432 C   0  0  0  0  0  0
   -1.9224   -7.2634   -6.0931 C   0  0  0  0  0  0
   -1.9687   -6.6438   -7.1503 O   0  0  0  0  0  0
   -0.8332   -7.2908   -5.3109 O   0  0  0  0  0  0
   -3.6673   -6.2470   -3.9101 C   0  0  0  0  0  0
   -4.3120   -5.9844   -2.9062 O   0  0  0  0  0  0
   -2.4531   -5.7294   -4.1418 O   0  0  0  0  0  0
   -8.6322   -2.7784   -7.6343 O   0  0  0  0  0  0
   -9.7266   -3.0572   -6.8328 C   0  0  0  0  0  0
  -10.8165   -3.4297   -7.2474 O   0  0  0  0  0  0
   -9.4273   -2.8482   -5.3425 C   0  0  0  0  0  0
  -10.4104   -1.9069   -4.5797 C   0  0  0  0  0  0
  -10.3372   -1.8775   -3.0421 C   0  0  0  0  0  0
   -9.0520   -2.4384   -2.5052 C   0  0  0  0  0  0
   -8.2035   -1.8115   -1.8858 O   0  0  0  0  0  0
   -8.9183   -3.7490   -2.7594 O   0  0  0  0  0  0
  -10.4021   -0.4508   -5.0614 C   0  0  0  0  0  0
   -9.5575   -0.0097   -5.8157 O   0  0  0  0  0  0
  -11.4612    0.2924   -4.6778 O   0  0  0  0  0  0
   -7.1031    1.9401    0.1292 H   0  0  0  0  0  0
   -6.7484    2.6980    1.5150 H   0  0  0  0  0  0
   -8.7548    0.4916   -0.5879 H   0  0  0  0  0  0
   -7.2186   -3.7302    0.2594 H   0  0  0  0  0  0
   -1.5380   -3.0370   -3.7040 H   0  0  0  0  0  0
   -0.0087   -6.9829   -5.7339 H   0  0  0  0  0  0
   -2.1402   -5.0930   -3.4520 H   0  0  0  0  0  0
   -8.0861   -4.0359   -2.3275 H   0  0  0  0  0  0
  -11.5325    1.1741   -5.1065 H   0  0  0  0  0  0
  1  2  1  0  0  0
  2  3  1  0  0  0
  3  4  1  0  0  0
  4  5  1  0  0  0
  5  6  1  0  0  0
  5  7  1  0  0  0
  7  8  1  0  0  0
  7 39  1  0  0  0
  8  9  1  0  0  0
  8 27  1  0  0  0
  9 10  1  0  0  0
 10 11  1  0  0  0
 10 12  1  0  0  0
 12 13  1  0  0  0
 13 14  1  0  0  0
 13 26  1  0  0  0
 14 15  1  0  0  0
 15 16  1  0  0  0
 16 17  1  0  0  0
 17 18  1  0  0  0
 18 19  1  0  0  0
 18 25  1  0  0  0
 19 20  1  0  0  0
 20 21  1  0  0  0
 20 24  1  0  0  0
 21 22  1  0  0  0
 21 23  1  0  0  0
 23 51  1  0  0  0
 23 52  1  0  0  0
 24 53  1  0  0  0
 25 54  1  0  0  0
 26 55  1  0  0  0
 27 28  1  0  0  0
 28 29  2  0  0  0
 28 30  1  0  0  0
 30 31  1  0  0  0
 31 32  1  0  0  0
 31 36  1  0  0  0
 32 33  1  0  0  0
 33 34  2  0  0  0
 33 35  1  0  0  0
 35 56  1  0  0  0
 36 37  2  0  0  0
 36 38  1  0  0  0
 38 57  1  0  0  0
 39 40  1  0  0  0
 40 41  2  0  0  0
 40 42  1  0  0  0
 42 43  1  0  0  0
 43 44  1  0  0  0
 43 48  1  0  0  0
 44 45  1  0  0  0
 45 46  2  0  0  0
 45 47  1  0  0  0
 47 58  1  0  0  0
 48 49  2  0  0  0
 48 50  1  0  0  0
 50 59  1  0  0  0
M  END
>  <AUTHOR>
    GENERATED BY OPEN BABEL 2.4.1

>  <CHROM.1>
60.08640925,70.65114180,-71.46763345,148.19915812,101.18524612,119.70818471
-144.98715068,-155.19894019,108.33264370,-49.27571957,47.28786697,77.00641663
72.92755193,89.85075591,69.62663940,136.60518114,178.01514315,76.49112180
77.64899043,-161.71539437,-46.64661222,171.15557727,8.98927811,100.74368874
-140.89215557,175.28860651,57.47497018,98.52981721,-71.70606868,164.99698283
175.41050019,-69.29765851,126.38736995,168.02207658,17.87240325,-11.47231978
115.39070056,-176.54903380,-170.22395900,-6.73946993,-3.04944412,-4.65349289
1.36392402,0.55390075,-1.94127205

>  <COMPND>
    UNNAMED

>  <MASTER>
        0    0    0    0    0    0    0    0  109    0  109    0

>  <Name>
FB1.pdb

>  <RI>
0

>  <Rbt.Current_Directory>
/home/fc/tossine/FB1_39/p3/0_clust04

>  <Rbt.Executable>
rbdock/0.1.0

>  <Rbt.Library>
librxdock.so/0.1.0

>  <Rbt.Parameter_File>
/cluster/rxdock/data/scripts/dock.prm

>  <Rbt.Receptor>
rx_4.prm

>  <SCORE>
86.7809

>  <SCORE.INTER>
37.7435

>  <SCORE.INTER.CONST>
1

>  <SCORE.INTER.POLAR>
-0.8

>  <SCORE.INTER.REPUL>
0.8167

>  <SCORE.INTER.ROT>
32

>  <SCORE.INTER.VDW>
-1.01998

>  <SCORE.INTER.norm>
0.75487

>  <SCORE.INTRA>
39.5473

>  <SCORE.INTRA.DIHEDRAL>
59.4466

>  <SCORE.INTRA.DIHEDRAL.0>
47.3121

>  <SCORE.INTRA.POLAR>
0.998253

>  <SCORE.INTRA.POLAR.0>
-1.47808

>  <SCORE.INTRA.REPUL>
0

>  <SCORE.INTRA.REPUL.0>
0

>  <SCORE.INTRA.VDW>
6.42992

>  <SCORE.INTRA.VDW.0>
-2.78316

>  <SCORE.INTRA.norm>
0.790946

>  <SCORE.RESTR>
9.49004

>  <SCORE.RESTR.CAVITY>
9.49004

>  <SCORE.RESTR.norm>
0.189801

>  <SCORE.SYSTEM>
0

>  <SCORE.SYSTEM.CONST>
0

>  <SCORE.SYSTEM.DIHEDRAL>
0

>  <SCORE.SYSTEM.norm>
0

>  <SCORE.heavy>
50

>  <SCORE.norm>
1.73562

$$$$
