FB1.pdb
  RxDock  10062020013D
librxdock.so/0.1.0
 59 58  0  0  0  0  0  0  0  0999 V2000
   -4.5468   -5.3641   -8.9489 C   0  0  0  0  0  0
   -5.9831   -4.9080   -8.7029 C   0  0  0  0  0  0
   -6.6123   -4.3012   -9.9679 C   0  0  0  0  0  0
   -7.2642   -5.3536  -10.8991 C   0  0  0  0  0  0
   -6.4152   -5.7365  -12.1613 C   0  0  0  0  0  0
   -5.4464   -6.8754  -11.7674 C   0  0  0  0  0  0
   -7.2955   -6.1487  -13.4154 C   0  0  0  0  0  0
   -7.7904   -7.6707  -13.4860 C   0  0  0  0  0  0
   -9.1364   -8.2257  -12.8471 C   0  0  0  0  0  0
  -10.5205   -7.5405  -13.4269 C   0  0  0  0  0  0
  -11.0290   -8.3865  -14.5930 C   0  0  0  0  0  0
  -11.6954   -7.3262  -12.3693 C   0  0  0  0  0  0
  -11.5769   -6.3829  -11.0598 C   0  0  0  0  0  0
  -11.0242   -4.9179  -11.1269 C   0  0  0  0  0  0
  -10.9596   -4.0702   -9.7754 C   0  0  0  0  0  0
  -10.3363   -4.5986   -8.4239 C   0  0  0  0  0  0
   -8.9013   -4.1657   -8.0229 C   0  0  0  0  0  0
   -8.7673   -2.7963   -7.2509 C   0  0  0  0  0  0
   -8.9130   -2.8593   -5.7254 C   0  0  0  0  0  0
   -8.0201   -3.8616   -4.9402 C   0  0  0  0  0  0
   -6.4699   -3.7131   -4.9462 C   0  0  0  0  0  0
   -5.9220   -2.3167   -4.6870 C   0  0  0  0  0  0
   -5.8439   -4.7005   -4.0464 N   0  0  0  0  0  0
   -8.4083   -3.6911   -3.5531 O   0  0  0  0  0  0
   -7.4868   -2.2369   -7.5628 O   0  0  0  0  0  0
  -12.9238   -6.2539  -10.5741 O   0  0  0  0  0  0
   -7.9011   -7.9969  -14.8980 O   0  0  0  0  0  0
   -6.7812   -8.4561  -15.5147 C   0  0  0  0  0  0
   -5.6668   -8.5159  -15.0311 O   0  0  0  0  0  0
   -7.1652   -8.9783  -16.8717 C   0  0  0  0  0  0
   -7.2562  -10.5121  -16.9099 C   0  0  0  0  0  0
   -8.1624  -11.0757  -15.8079 C   0  0  0  0  0  0
   -7.5995  -12.3589  -15.2424 C   0  0  0  0  0  0
   -6.5117  -12.8232  -15.5662 O   0  0  0  0  0  0
   -8.4053  -12.9464  -14.3455 O   0  0  0  0  0  0
   -7.8255  -10.8666  -18.2905 C   0  0  0  0  0  0
   -7.2750  -11.6388  -19.0608 O   0  0  0  0  0  0
   -8.9562  -10.2197  -18.6053 O   0  0  0  0  0  0
   -8.4105   -5.1931  -13.6243 O   0  0  0  0  0  0
   -9.0948   -5.2316  -14.8277 C   0  0  0  0  0  0
   -8.6051   -5.5721  -15.8967 O   0  0  0  0  0  0
  -10.5588   -4.7961  -14.6810 C   0  0  0  0  0  0
  -10.8916   -3.3581  -15.1871 C   0  0  0  0  0  0
   -9.8771   -2.2367  -14.8979 C   0  0  0  0  0  0
   -9.3818   -2.2449  -13.4805 C   0  0  0  0  0  0
   -9.8909   -2.8550  -12.5503 O   0  0  0  0  0  0
   -8.2727   -1.5071  -13.3202 O   0  0  0  0  0  0
  -11.2487   -3.2730  -16.6762 C   0  0  0  0  0  0
  -12.2822   -2.7776  -17.0801 O   0  0  0  0  0  0
  -10.2878   -3.6898  -17.5272 O   0  0  0  0  0  0
   -6.3033   -5.6020   -4.1683 H   0  0  0  0  0  0
   -6.0415   -4.4328   -3.0796 H   0  0  0  0  0  0
   -7.9787   -4.4368   -3.0833 H   0  0  0  0  0  0
   -7.5513   -1.2672   -7.4846 H   0  0  0  0  0  0
  -13.4843   -5.9673  -11.3146 H   0  0  0  0  0  0
   -9.2597  -12.4977  -14.1962 H   0  0  0  0  0  0
   -9.3029  -10.4168  -19.5107 H   0  0  0  0  0  0
   -8.2336   -0.8891  -14.0803 H   0  0  0  0  0  0
   -9.3945   -3.7977  -17.1313 H   0  0  0  0  0  0
  1  2  1  0  0  0
  2  3  1  0  0  0
  3  4  1  0  0  0
  4  5  1  0  0  0
  5  6  1  0  0  0
  5  7  1  0  0  0
  7  8  1  0  0  0
  7 39  1  0  0  0
  8  9  1  0  0  0
  8 27  1  0  0  0
  9 10  1  0  0  0
 10 11  1  0  0  0
 10 12  1  0  0  0
 12 13  1  0  0  0
 13 14  1  0  0  0
 13 26  1  0  0  0
 14 15  1  0  0  0
 15 16  1  0  0  0
 16 17  1  0  0  0
 17 18  1  0  0  0
 18 19  1  0  0  0
 18 25  1  0  0  0
 19 20  1  0  0  0
 20 21  1  0  0  0
 20 24  1  0  0  0
 21 22  1  0  0  0
 21 23  1  0  0  0
 23 51  1  0  0  0
 23 52  1  0  0  0
 24 53  1  0  0  0
 25 54  1  0  0  0
 26 55  1  0  0  0
 27 28  1  0  0  0
 28 29  2  0  0  0
 28 30  1  0  0  0
 30 31  1  0  0  0
 31 32  1  0  0  0
 31 36  1  0  0  0
 32 33  1  0  0  0
 33 34  2  0  0  0
 33 35  1  0  0  0
 35 56  1  0  0  0
 36 37  2  0  0  0
 36 38  1  0  0  0
 38 57  1  0  0  0
 39 40  1  0  0  0
 40 41  2  0  0  0
 40 42  1  0  0  0
 42 43  1  0  0  0
 43 44  1  0  0  0
 43 48  1  0  0  0
 44 45  1  0  0  0
 45 46  2  0  0  0
 45 47  1  0  0  0
 47 58  1  0  0  0
 48 49  2  0  0  0
 48 50  1  0  0  0
 50 59  1  0  0  0
M  END
>  <AUTHOR>
    GENERATED BY OPEN BABEL 2.4.1

>  <CHROM.1>
86.53549320,-102.21629814,86.74561712,-84.34432244,88.58990375,166.16110754
60.56514708,87.29201844,92.24979179,61.82146688,48.49282235,179.57286199
-51.94847142,49.03839936,100.17019653,85.68733052,87.11317621,53.12926553
152.36130121,63.08828700,47.12226481,169.29136205,42.64185187,-6.61264780
-101.74604266,52.65650059,-141.89206422,125.66619224,4.84265342,2.25855316
177.43151477,-29.80605178,103.63479404,-40.14671121,-45.93771305,125.09638175
-14.93326227,19.96166810,-14.12609937,-8.54988038,-6.06736856,-12.38991390
-1.48361650,0.99820909,-2.17421097

>  <COMPND>
    UNNAMED

>  <MASTER>
        0    0    0    0    0    0    0    0  109    0  109    0

>  <Name>
FB1.pdb

>  <RI>
0

>  <Rbt.Current_Directory>
/home/fc/tossine/FB1_39/p3/0_clust04

>  <Rbt.Executable>
rbdock/0.1.0

>  <Rbt.Library>
librxdock.so/0.1.0

>  <Rbt.Parameter_File>
/cluster/rxdock/data/scripts/dock.prm

>  <Rbt.Receptor>
rx_0.prm

>  <SCORE>
8.24078

>  <SCORE.INTER>
-2.66345

>  <SCORE.INTER.CONST>
1

>  <SCORE.INTER.POLAR>
-3.40241

>  <SCORE.INTER.REPUL>
0.100745

>  <SCORE.INTER.ROT>
32

>  <SCORE.INTER.VDW>
-28.999

>  <SCORE.INTER.norm>
-0.053269

>  <SCORE.INTRA>
10.9042

>  <SCORE.INTRA.DIHEDRAL>
17.8713

>  <SCORE.INTRA.DIHEDRAL.0>
47.3121

>  <SCORE.INTRA.POLAR>
1.47808

>  <SCORE.INTRA.POLAR.0>
-1.47808

>  <SCORE.INTRA.REPUL>
0

>  <SCORE.INTRA.REPUL.0>
0

>  <SCORE.INTRA.VDW>
-3.05689

>  <SCORE.INTRA.VDW.0>
-2.78316

>  <SCORE.INTRA.norm>
0.218085

>  <SCORE.RESTR>
0

>  <SCORE.RESTR.CAVITY>
0

>  <SCORE.RESTR.norm>
0

>  <SCORE.SYSTEM>
0

>  <SCORE.SYSTEM.CONST>
0

>  <SCORE.SYSTEM.DIHEDRAL>
0

>  <SCORE.SYSTEM.norm>
0

>  <SCORE.heavy>
50

>  <SCORE.norm>
0.164816

$$$$
