FB1.pdb
  RxDock  10062022273D
librxdock.so/0.1.0
 59 58  0  0  0  0  0  0  0  0999 V2000
   -0.3826   -1.4174   -7.7032 C   0  0  0  0  0  0
   -1.7193   -0.7207   -7.4602 C   0  0  0  0  0  0
   -2.9015   -1.6952   -7.5914 C   0  0  0  0  0  0
   -3.5390   -1.7061   -9.0031 C   0  0  0  0  0  0
   -4.1307   -3.0880   -9.4511 C   0  0  0  0  0  0
   -3.0292   -3.8654  -10.2080 C   0  0  0  0  0  0
   -4.7092   -3.9485   -8.2500 C   0  0  0  0  0  0
   -5.9931   -4.8552   -8.5592 C   0  0  0  0  0  0
   -5.9495   -6.3763   -9.0203 C   0  0  0  0  0  0
   -6.0423   -6.6161  -10.6498 C   0  0  0  0  0  0
   -6.1339   -8.1179  -10.9147 C   0  0  0  0  0  0
   -7.2312   -5.8664  -11.4043 C   0  0  0  0  0  0
   -7.6658   -6.1641  -12.9344 C   0  0  0  0  0  0
   -8.8158   -7.1633  -13.3019 C   0  0  0  0  0  0
  -10.2228   -7.0031  -12.5645 C   0  0  0  0  0  0
  -10.4791   -6.0406  -11.3387 C   0  0  0  0  0  0
  -11.5937   -4.9651  -11.4311 C   0  0  0  0  0  0
  -11.3324   -3.7611  -12.4166 C   0  0  0  0  0  0
  -10.7429   -2.4892  -11.7942 C   0  0  0  0  0  0
  -11.6085   -1.6991  -10.7721 C   0  0  0  0  0  0
  -11.0353   -1.3223   -9.3739 C   0  0  0  0  0  0
  -12.0534   -1.0340   -8.2795 C   0  0  0  0  0  0
  -10.0468   -2.3210   -8.9247 N   0  0  0  0  0  0
  -11.8780   -0.4305  -11.4216 O   0  0  0  0  0  0
  -10.4469   -4.2165  -13.4453 O   0  0  0  0  0  0
   -8.0940   -4.8927  -13.4509 O   0  0  0  0  0  0
   -6.7824   -4.8717   -7.3388 O   0  0  0  0  0  0
   -8.1239   -4.7030   -7.4695 C   0  0  0  0  0  0
   -8.7965   -5.0072   -8.4362 O   0  0  0  0  0  0
   -8.6647   -4.1663   -6.1729 C   0  0  0  0  0  0
   -8.4617   -2.6493   -6.0315 C   0  0  0  0  0  0
   -9.5099   -1.9977   -5.1203 C   0  0  0  0  0  0
   -9.8190   -0.5875   -5.5667 C   0  0  0  0  0  0
  -10.9427   -0.0975   -5.5365 O   0  0  0  0  0  0
   -8.7421    0.0838   -6.0007 O   0  0  0  0  0  0
   -7.0596   -2.4652   -5.4347 C   0  0  0  0  0  0
   -6.4075   -1.4407   -5.5676 O   0  0  0  0  0  0
   -6.5853   -3.5426   -4.7942 O   0  0  0  0  0  0
   -3.6352   -4.7193   -7.5776 O   0  0  0  0  0  0
   -3.8287   -5.1106   -6.2632 C   0  0  0  0  0  0
   -4.9065   -5.0940   -5.6832 O   0  0  0  0  0  0
   -2.5283   -5.5769   -5.5954 C   0  0  0  0  0  0
   -2.6860   -6.6765   -4.4998 C   0  0  0  0  0  0
   -3.7372   -6.4535   -3.3972 C   0  0  0  0  0  0
   -3.9044   -5.0073   -3.0301 C   0  0  0  0  0  0
   -4.9711   -4.4330   -2.8600 O   0  0  0  0  0  0
   -2.7296   -4.3767   -2.8802 O   0  0  0  0  0  0
   -2.8956   -8.0946   -5.0452 C   0  0  0  0  0  0
   -2.0785   -8.6606   -5.7443 O   0  0  0  0  0  0
   -4.0071   -8.7243   -4.6101 O   0  0  0  0  0  0
  -10.1221   -2.4348   -7.9148 H   0  0  0  0  0  0
   -9.1087   -1.9441   -9.0780 H   0  0  0  0  0  0
  -10.9918   -0.0716  -11.6390 H   0  0  0  0  0  0
  -10.8801   -4.9524  -13.9157 H   0  0  0  0  0  0
   -8.3565   -5.0178  -14.3782 H   0  0  0  0  0  0
   -8.7136    1.0286   -5.7560 H   0  0  0  0  0  0
   -7.2385   -3.9856   -4.1977 H   0  0  0  0  0  0
   -2.9361   -3.4327   -2.7145 H   0  0  0  0  0  0
   -3.9964   -9.7033   -4.6979 H   0  0  0  0  0  0
  1  2  1  0  0  0
  2  3  1  0  0  0
  3  4  1  0  0  0
  4  5  1  0  0  0
  5  6  1  0  0  0
  5  7  1  0  0  0
  7  8  1  0  0  0
  7 39  1  0  0  0
  8  9  1  0  0  0
  8 27  1  0  0  0
  9 10  1  0  0  0
 10 11  1  0  0  0
 10 12  1  0  0  0
 12 13  1  0  0  0
 13 14  1  0  0  0
 13 26  1  0  0  0
 14 15  1  0  0  0
 15 16  1  0  0  0
 16 17  1  0  0  0
 17 18  1  0  0  0
 18 19  1  0  0  0
 18 25  1  0  0  0
 19 20  1  0  0  0
 20 21  1  0  0  0
 20 24  1  0  0  0
 21 22  1  0  0  0
 21 23  1  0  0  0
 23 51  1  0  0  0
 23 52  1  0  0  0
 24 53  1  0  0  0
 25 54  1  0  0  0
 26 55  1  0  0  0
 27 28  1  0  0  0
 28 29  2  0  0  0
 28 30  1  0  0  0
 30 31  1  0  0  0
 31 32  1  0  0  0
 31 36  1  0  0  0
 32 33  1  0  0  0
 33 34  2  0  0  0
 33 35  1  0  0  0
 35 56  1  0  0  0
 36 37  2  0  0  0
 36 38  1  0  0  0
 38 57  1  0  0  0
 39 40  1  0  0  0
 40 41  2  0  0  0
 40 42  1  0  0  0
 42 43  1  0  0  0
 43 44  1  0  0  0
 43 48  1  0  0  0
 44 45  1  0  0  0
 45 46  2  0  0  0
 45 47  1  0  0  0
 47 58  1  0  0  0
 48 49  2  0  0  0
 48 50  1  0  0  0
 50 59  1  0  0  0
M  END
>  <AUTHOR>
    GENERATED BY OPEN BABEL 2.4.1

>  <CHROM.1>
-94.33743599,147.92179404,-91.59796295,145.70711533,92.24070396,156.25188749
-95.73458294,135.75729020,-174.20204878,-168.65486680,94.72346358,50.48297276
179.29504301,-9.22859787,123.57570189,-69.93937402,-95.46877089,-65.68671623
60.53583144,127.86818871,-157.94978450,-55.77980609,-144.49847008,28.25722190
80.92089856,153.33871131,-147.74981667,156.37891196,141.84061079,-141.92585102
-44.28047609,14.41088150,-149.04607552,-49.65107498,-33.26317682,61.05580619
135.68687784,175.57707465,-160.07062168,-6.80329735,-4.10423871,-8.03970447
0.41725698,-0.59309825,0.92978691

>  <COMPND>
    UNNAMED

>  <MASTER>
        0    0    0    0    0    0    0    0  109    0  109    0

>  <Name>
FB1.pdb

>  <RI>
0

>  <Rbt.Current_Directory>
/home/fc/tossine/FB1_39/p3/0_clust04

>  <Rbt.Executable>
rbdock/0.1.0

>  <Rbt.Library>
librxdock.so/0.1.0

>  <Rbt.Parameter_File>
/cluster/rxdock/data/scripts/dock.prm

>  <Rbt.Receptor>
rx_3.prm

>  <SCORE>
166.334

>  <SCORE.INTER>
121.904

>  <SCORE.INTER.CONST>
1

>  <SCORE.INTER.POLAR>
-1.16836

>  <SCORE.INTER.REPUL>
0.134773

>  <SCORE.INTER.ROT>
32

>  <SCORE.INTER.VDW>
87.8026

>  <SCORE.INTER.norm>
2.43808

>  <SCORE.INTRA>
40.0499

>  <SCORE.INTRA.DIHEDRAL>
60.761

>  <SCORE.INTRA.DIHEDRAL.0>
47.3121

>  <SCORE.INTRA.POLAR>
1.47808

>  <SCORE.INTRA.POLAR.0>
-1.47808

>  <SCORE.INTRA.REPUL>
0.815269

>  <SCORE.INTRA.REPUL.0>
0

>  <SCORE.INTRA.VDW>
0.567606

>  <SCORE.INTRA.VDW.0>
-2.78316

>  <SCORE.INTRA.norm>
0.800998

>  <SCORE.RESTR>
4.38034

>  <SCORE.RESTR.CAVITY>
4.38034

>  <SCORE.RESTR.norm>
0.0876069

>  <SCORE.SYSTEM>
0

>  <SCORE.SYSTEM.CONST>
0

>  <SCORE.SYSTEM.DIHEDRAL>
0

>  <SCORE.SYSTEM.norm>
0

>  <SCORE.heavy>
50

>  <SCORE.norm>
3.32669

$$$$
