FB1.pdb
  RxDock  10062023023D
librxdock.so/0.1.0
 59 58  0  0  0  0  0  0  0  0999 V2000
   -1.1139   -4.1719   -8.2752 C   0  0  0  0  0  0
   -1.4417   -2.7874   -8.8291 C   0  0  0  0  0  0
   -2.2664   -1.9561   -7.8327 C   0  0  0  0  0  0
   -3.6559   -2.5659   -7.5211 C   0  0  0  0  0  0
   -4.5668   -1.6942   -6.5878 C   0  0  0  0  0  0
   -5.2266   -0.5906   -7.4465 C   0  0  0  0  0  0
   -5.6617   -2.5357   -5.8062 C   0  0  0  0  0  0
   -6.3229   -3.7686   -6.5865 C   0  0  0  0  0  0
   -6.0441   -5.3030   -6.2768 C   0  0  0  0  0  0
   -4.5211   -5.8239   -6.6380 C   0  0  0  0  0  0
   -4.1722   -6.9849   -5.7082 C   0  0  0  0  0  0
   -4.2665   -6.2563   -8.1523 C   0  0  0  0  0  0
   -4.4097   -5.2578   -9.4176 C   0  0  0  0  0  0
   -5.1251   -5.6822  -10.7459 C   0  0  0  0  0  0
   -6.6935   -5.4155  -10.8799 C   0  0  0  0  0  0
   -7.6087   -6.0428  -12.0040 C   0  0  0  0  0  0
   -9.0649   -6.4555  -11.6624 C   0  0  0  0  0  0
  -10.0533   -5.2917  -11.2652 C   0  0  0  0  0  0
   -9.7897   -4.6063   -9.9187 C   0  0  0  0  0  0
   -9.4020   -3.1003   -9.9214 C   0  0  0  0  0  0
  -10.3921   -2.0292  -10.4671 C   0  0  0  0  0  0
  -11.5937   -1.7077   -9.5894 C   0  0  0  0  0  0
   -9.6754   -0.7983  -10.8514 N   0  0  0  0  0  0
   -9.2201   -2.7650   -8.5220 O   0  0  0  0  0  0
  -10.0059   -4.3005  -12.2971 O   0  0  0  0  0  0
   -5.1681   -4.1412   -8.9232 O   0  0  0  0  0  0
   -7.7607   -3.6252   -6.4289 O   0  0  0  0  0  0
   -8.2135   -3.2639   -5.2002 C   0  0  0  0  0  0
   -7.5457   -3.1616   -4.1888 O   0  0  0  0  0  0
   -9.6704   -2.9091   -5.3152 C   0  0  0  0  0  0
  -10.0378   -1.6539   -4.5078 C   0  0  0  0  0  0
  -11.3570   -1.0219   -4.9701 C   0  0  0  0  0  0
  -11.1102    0.2614   -5.7288 C   0  0  0  0  0  0
  -11.8339    0.6648   -6.6328 O   0  0  0  0  0  0
  -10.0191    0.9240   -5.3173 O   0  0  0  0  0  0
  -10.1580   -2.1118   -3.0477 C   0  0  0  0  0  0
  -11.2225   -2.4102   -2.5278 O   0  0  0  0  0  0
   -9.0014   -2.1107   -2.3708 O   0  0  0  0  0  0
   -5.1760   -2.9276   -4.4607 O   0  0  0  0  0  0
   -4.8404   -1.9270   -3.5638 C   0  0  0  0  0  0
   -4.6350   -0.7593   -3.8682 O   0  0  0  0  0  0
   -4.7515   -2.4418   -2.1211 C   0  0  0  0  0  0
   -6.0976   -2.4857   -1.3334 C   0  0  0  0  0  0
   -6.6201   -3.8579   -0.8701 C   0  0  0  0  0  0
   -6.9620   -4.7713   -2.0116 C   0  0  0  0  0  0
   -6.1755   -5.4959   -2.6059 O   0  0  0  0  0  0
   -8.2662   -4.7357   -2.3246 O   0  0  0  0  0  0
   -6.1593   -1.5455   -0.1233 C   0  0  0  0  0  0
   -6.5944   -1.8888    0.9581 O   0  0  0  0  0  0
   -5.5970   -0.3319   -0.3033 O   0  0  0  0  0  0
   -9.2700   -0.9234  -11.7780 H   0  0  0  0  0  0
   -8.8744   -0.6784  -10.2274 H   0  0  0  0  0  0
   -8.3778   -3.2000   -8.2716 H   0  0  0  0  0  0
  -10.5013   -4.6379  -13.0661 H   0  0  0  0  0  0
   -5.3451   -3.5440   -9.6692 H   0  0  0  0  0  0
   -9.2669    0.3621   -5.0491 H   0  0  0  0  0  0
   -8.2316   -1.7475   -2.8749 H   0  0  0  0  0  0
   -8.6324   -3.9249   -1.9122 H   0  0  0  0  0  0
   -5.2508   -0.1596   -1.2070 H   0  0  0  0  0  0
  1  2  1  0  0  0
  2  3  1  0  0  0
  3  4  1  0  0  0
  4  5  1  0  0  0
  5  6  1  0  0  0
  5  7  1  0  0  0
  7  8  1  0  0  0
  7 39  1  0  0  0
  8  9  1  0  0  0
  8 27  1  0  0  0
  9 10  1  0  0  0
 10 11  1  0  0  0
 10 12  1  0  0  0
 12 13  1  0  0  0
 13 14  1  0  0  0
 13 26  1  0  0  0
 14 15  1  0  0  0
 15 16  1  0  0  0
 16 17  1  0  0  0
 17 18  1  0  0  0
 18 19  1  0  0  0
 18 25  1  0  0  0
 19 20  1  0  0  0
 20 21  1  0  0  0
 20 24  1  0  0  0
 21 22  1  0  0  0
 21 23  1  0  0  0
 23 51  1  0  0  0
 23 52  1  0  0  0
 24 53  1  0  0  0
 25 54  1  0  0  0
 26 55  1  0  0  0
 27 28  1  0  0  0
 28 29  2  0  0  0
 28 30  1  0  0  0
 30 31  1  0  0  0
 31 32  1  0  0  0
 31 36  1  0  0  0
 32 33  1  0  0  0
 33 34  2  0  0  0
 33 35  1  0  0  0
 35 56  1  0  0  0
 36 37  2  0  0  0
 36 38  1  0  0  0
 38 57  1  0  0  0
 39 40  1  0  0  0
 40 41  2  0  0  0
 40 42  1  0  0  0
 42 43  1  0  0  0
 43 44  1  0  0  0
 43 48  1  0  0  0
 44 45  1  0  0  0
 45 46  2  0  0  0
 45 47  1  0  0  0
 47 58  1  0  0  0
 48 49  2  0  0  0
 48 50  1  0  0  0
 50 59  1  0  0  0
M  END
>  <AUTHOR>
    GENERATED BY OPEN BABEL 2.4.1

>  <CHROM.1>
-63.13231614,-175.84836911,80.47994973,-36.32187144,108.05560650,60.56282651
-68.16948855,-42.10513387,151.86045538,61.67915490,-136.19654618,90.10522985
-175.36879486,-166.72266813,143.97402796,64.95540371,-69.18044242,116.13554212
75.14421289,62.46915808,73.47621583,72.62239454,81.17408115,-6.88288254,-137.96136656
160.94794701,-107.03950995,-95.86838979,148.94489240,36.04125272,4.63390197
-16.55439103,-85.34496936,116.78394433,-64.19022258,-135.03951622,85.06323434
16.77251877,3.23596299,-7.16680984,-3.08553398,-6.21017319,-1.66045880,-0.33321367
1.30829107

>  <COMPND>
    UNNAMED

>  <MASTER>
        0    0    0    0    0    0    0    0  109    0  109    0

>  <Name>
FB1.pdb

>  <RI>
0

>  <Rbt.Current_Directory>
/home/fc/tossine/FB1_39/p3/0_clust04

>  <Rbt.Executable>
rbdock/0.1.0

>  <Rbt.Library>
librxdock.so/0.1.0

>  <Rbt.Parameter_File>
/cluster/rxdock/data/scripts/dock.prm

>  <Rbt.Receptor>
rx_4.prm

>  <SCORE>
39.7115

>  <SCORE.INTER>
16.2373

>  <SCORE.INTER.CONST>
1

>  <SCORE.INTER.POLAR>
-2.28669

>  <SCORE.INTER.REPUL>
0.00321926

>  <SCORE.INTER.ROT>
32

>  <SCORE.INTER.VDW>
-13.404

>  <SCORE.INTER.norm>
0.324747

>  <SCORE.INTRA>
16.0543

>  <SCORE.INTRA.DIHEDRAL>
23.6483

>  <SCORE.INTRA.DIHEDRAL.0>
47.3121

>  <SCORE.INTRA.POLAR>
0.031471

>  <SCORE.INTRA.POLAR.0>
-1.47808

>  <SCORE.INTRA.REPUL>
0

>  <SCORE.INTRA.REPUL.0>
0

>  <SCORE.INTRA.VDW>
4.12311

>  <SCORE.INTRA.VDW.0>
-2.78316

>  <SCORE.INTRA.norm>
0.321085

>  <SCORE.RESTR>
7.41988

>  <SCORE.RESTR.CAVITY>
7.41988

>  <SCORE.RESTR.norm>
0.148398

>  <SCORE.SYSTEM>
0

>  <SCORE.SYSTEM.CONST>
0

>  <SCORE.SYSTEM.DIHEDRAL>
0

>  <SCORE.SYSTEM.norm>
0

>  <SCORE.heavy>
50

>  <SCORE.norm>
0.79423

$$$$
