FB1.pdb
  RxDock  10062021523D
librxdock.so/0.1.0
 59 58  0  0  0  0  0  0  0  0999 V2000
  -10.4733   -7.6839  -14.5027 C   0  0  0  0  0  0
  -10.1949   -8.0887  -13.0570 C   0  0  0  0  0  0
   -8.9982   -9.0488  -12.9550 C   0  0  0  0  0  0
   -7.6301   -8.3255  -12.8865 C   0  0  0  0  0  0
   -7.4252   -7.4158  -11.6251 C   0  0  0  0  0  0
   -5.9196   -7.0854  -11.5043 C   0  0  0  0  0  0
   -8.2968   -6.0901  -11.6520 C   0  0  0  0  0  0
   -8.6573   -5.4299  -10.2377 C   0  0  0  0  0  0
   -7.6886   -5.3793   -8.9779 C   0  0  0  0  0  0
   -6.3403   -4.4482   -9.1692 C   0  0  0  0  0  0
   -6.5141   -3.1693   -8.3517 C   0  0  0  0  0  0
   -4.9511   -5.1374   -8.7954 C   0  0  0  0  0  0
   -3.7211   -4.3693   -8.0772 C   0  0  0  0  0  0
   -2.3275   -5.0478   -7.8453 C   0  0  0  0  0  0
   -2.2797   -6.4209   -7.0320 C   0  0  0  0  0  0
   -3.2977   -6.8133   -5.8900 C   0  0  0  0  0  0
   -3.0520   -6.3137   -4.4418 C   0  0  0  0  0  0
   -4.2504   -5.5640   -3.7411 C   0  0  0  0  0  0
   -3.9732   -4.1306   -3.2709 C   0  0  0  0  0  0
   -4.9027   -3.5181   -2.1850 C   0  0  0  0  0  0
   -4.8707   -1.9900   -1.8863 C   0  0  0  0  0  0
   -5.3214   -1.5618   -0.4967 C   0  0  0  0  0  0
   -3.5502   -1.4185   -2.2117 N   0  0  0  0  0  0
   -6.2473   -3.7793   -2.6622 O   0  0  0  0  0  0
   -5.3506   -5.5375   -4.6568 O   0  0  0  0  0  0
   -3.4511   -3.2359   -8.9192 O   0  0  0  0  0  0
   -8.9695   -4.0363  -10.5077 O   0  0  0  0  0  0
   -9.6014   -3.3440   -9.5244 C   0  0  0  0  0  0
   -9.4502   -3.4951   -8.3270 O   0  0  0  0  0  0
  -10.4518   -2.2804  -10.1622 C   0  0  0  0  0  0
  -11.7887   -2.0765   -9.4316 C   0  0  0  0  0  0
  -11.6313   -1.2873   -8.1255 C   0  0  0  0  0  0
  -11.1587   -2.1808   -7.0023 C   0  0  0  0  0  0
  -11.6317   -3.2885   -6.7718 O   0  0  0  0  0  0
  -10.1653   -1.6467   -6.2765 O   0  0  0  0  0  0
  -12.6888   -1.3049  -10.4064 C   0  0  0  0  0  0
  -13.6930   -1.7853  -10.9096 O   0  0  0  0  0  0
  -12.2553   -0.0716  -10.7012 O   0  0  0  0  0  0
   -7.7330   -5.0979  -12.5994 O   0  0  0  0  0  0
   -8.5007   -4.7144  -13.6865 C   0  0  0  0  0  0
   -8.0921   -4.6468  -14.8383 O   0  0  0  0  0  0
   -9.9446   -4.3772  -13.2917 C   0  0  0  0  0  0
  -10.6977   -3.4007  -14.2476 C   0  0  0  0  0  0
  -10.0749   -2.0164  -14.5048 C   0  0  0  0  0  0
  -10.9339   -1.1379  -15.3679 C   0  0  0  0  0  0
  -10.6045   -0.6495  -16.4400 O   0  0  0  0  0  0
  -12.1545   -0.9420  -14.8463 O   0  0  0  0  0  0
  -11.0568   -3.9968  -15.6143 C   0  0  0  0  0  0
  -12.2031   -4.1445  -15.9896 O   0  0  0  0  0  0
  -10.0108   -4.2522  -16.4279 O   0  0  0  0  0  0
   -3.6547   -0.4226   -2.4008 H   0  0  0  0  0  0
   -3.2282   -1.8219   -3.0944 H   0  0  0  0  0  0
   -6.8056   -3.7464   -1.8568 H   0  0  0  0  0  0
   -5.8238   -6.3872   -4.5884 H   0  0  0  0  0  0
   -3.3065   -3.5608   -9.8237 H   0  0  0  0  0  0
   -9.7535   -0.8478   -6.6583 H   0  0  0  0  0  0
  -11.4522    0.2120  -10.1978 H   0  0  0  0  0  0
  -12.1680   -1.4029  -13.9810 H   0  0  0  0  0  0
   -9.1240   -4.1401  -16.0191 H   0  0  0  0  0  0
  1  2  1  0  0  0
  2  3  1  0  0  0
  3  4  1  0  0  0
  4  5  1  0  0  0
  5  6  1  0  0  0
  5  7  1  0  0  0
  7  8  1  0  0  0
  7 39  1  0  0  0
  8  9  1  0  0  0
  8 27  1  0  0  0
  9 10  1  0  0  0
 10 11  1  0  0  0
 10 12  1  0  0  0
 12 13  1  0  0  0
 13 14  1  0  0  0
 13 26  1  0  0  0
 14 15  1  0  0  0
 15 16  1  0  0  0
 16 17  1  0  0  0
 17 18  1  0  0  0
 18 19  1  0  0  0
 18 25  1  0  0  0
 19 20  1  0  0  0
 20 21  1  0  0  0
 20 24  1  0  0  0
 21 22  1  0  0  0
 21 23  1  0  0  0
 23 51  1  0  0  0
 23 52  1  0  0  0
 24 53  1  0  0  0
 25 54  1  0  0  0
 26 55  1  0  0  0
 27 28  1  0  0  0
 28 29  2  0  0  0
 28 30  1  0  0  0
 30 31  1  0  0  0
 31 32  1  0  0  0
 31 36  1  0  0  0
 32 33  1  0  0  0
 33 34  2  0  0  0
 33 35  1  0  0  0
 35 56  1  0  0  0
 36 37  2  0  0  0
 36 38  1  0  0  0
 38 57  1  0  0  0
 39 40  1  0  0  0
 40 41  2  0  0  0
 40 42  1  0  0  0
 42 43  1  0  0  0
 43 44  1  0  0  0
 43 48  1  0  0  0
 44 45  1  0  0  0
 45 46  2  0  0  0
 45 47  1  0  0  0
 47 58  1  0  0  0
 48 49  2  0  0  0
 48 50  1  0  0  0
 50 59  1  0  0  0
M  END
>  <AUTHOR>
    GENERATED BY OPEN BABEL 2.4.1

>  <CHROM.1>
85.39105824,63.17633851,164.82357203,154.65806452,37.00277131,117.38806178
66.30068734,165.14723300,106.69093633,-142.61187626,-174.30147809,-56.17697166
-54.14903774,-30.74326337,-84.09754058,127.36139821,-121.38241426,-159.89552362
82.97402814,-166.90011907,-155.00165385,157.24368948,155.68039272,33.76601189
142.47827450,76.25502059,-80.94686222,113.17096479,-45.58523395,-11.66100623
-4.74870187,-133.09670142,155.24352413,-57.27211587,-176.29106185,116.65813604
-121.11984866,2.67137592,7.60472259,-8.11441732,-4.02514074,-9.65554437,-2.28828224
-0.65460082,1.11404300

>  <COMPND>
    UNNAMED

>  <MASTER>
        0    0    0    0    0    0    0    0  109    0  109    0

>  <Name>
FB1.pdb

>  <RI>
0

>  <Rbt.Current_Directory>
/home/fc/tossine/FB1_39/p3/0_clust04

>  <Rbt.Executable>
rbdock/0.1.0

>  <Rbt.Library>
librxdock.so/0.1.0

>  <Rbt.Parameter_File>
/cluster/rxdock/data/scripts/dock.prm

>  <Rbt.Receptor>
rx_2.prm

>  <SCORE>
28.2467

>  <SCORE.INTER>
1.13321

>  <SCORE.INTER.CONST>
1

>  <SCORE.INTER.POLAR>
-3.21193

>  <SCORE.INTER.REPUL>
1.5543

>  <SCORE.INTER.ROT>
32

>  <SCORE.INTER.VDW>
-33.1177

>  <SCORE.INTER.norm>
0.0226642

>  <SCORE.INTRA>
24.3547

>  <SCORE.INTRA.DIHEDRAL>
37.376

>  <SCORE.INTRA.DIHEDRAL.0>
47.3121

>  <SCORE.INTRA.POLAR>
0.636534

>  <SCORE.INTRA.POLAR.0>
-1.47808

>  <SCORE.INTRA.REPUL>
0

>  <SCORE.INTRA.REPUL.0>
0

>  <SCORE.INTRA.VDW>
3.5025

>  <SCORE.INTRA.VDW.0>
-2.78316

>  <SCORE.INTRA.norm>
0.487095

>  <SCORE.RESTR>
2.75877

>  <SCORE.RESTR.CAVITY>
2.75877

>  <SCORE.RESTR.norm>
0.0551755

>  <SCORE.SYSTEM>
0

>  <SCORE.SYSTEM.CONST>
0

>  <SCORE.SYSTEM.DIHEDRAL>
0

>  <SCORE.SYSTEM.norm>
0

>  <SCORE.heavy>
50

>  <SCORE.norm>
0.564935

$$$$
