FB1.pdb
  RxDock  10062021503D
librxdock.so/0.1.0
 59 58  0  0  0  0  0  0  0  0999 V2000
  -10.1179    0.1496   -5.5518 C   0  0  0  0  0  0
  -10.9847   -1.0945   -5.7316 C   0  0  0  0  0  0
  -10.1380   -2.3774   -5.7716 C   0  0  0  0  0  0
   -9.3066   -2.5284   -7.0699 C   0  0  0  0  0  0
   -9.2164   -3.9902   -7.6315 C   0  0  0  0  0  0
  -10.5190   -4.2936   -8.4072 C   0  0  0  0  0  0
   -7.9418   -4.2410   -8.5427 C   0  0  0  0  0  0
   -7.9933   -3.6656  -10.0369 C   0  0  0  0  0  0
   -8.2621   -4.5325  -11.3424 C   0  0  0  0  0  0
   -9.4304   -5.6867  -11.1874 C   0  0  0  0  0  0
  -10.7944   -5.0247  -11.3762 C   0  0  0  0  0  0
   -9.3081   -6.9460  -12.1591 C   0  0  0  0  0  0
  -10.4935   -8.0190  -12.4078 C   0  0  0  0  0  0
  -10.2632   -9.3602  -13.1852 C   0  0  0  0  0  0
   -9.7024   -9.2835  -14.6781 C   0  0  0  0  0  0
  -10.4498   -8.5699  -15.8726 C   0  0  0  0  0  0
   -9.9888   -7.1609  -16.3303 C   0  0  0  0  0  0
   -9.5940   -6.1431  -15.1912 C   0  0  0  0  0  0
   -8.3566   -5.2759  -15.4540 C   0  0  0  0  0  0
   -6.9767   -5.9807  -15.5859 C   0  0  0  0  0  0
   -6.3981   -6.8150  -14.4049 C   0  0  0  0  0  0
   -6.3024   -6.1091  -13.0596 C   0  0  0  0  0  0
   -7.1055   -8.1031  -14.2754 N   0  0  0  0  0  0
   -7.1515   -6.9316  -16.6671 O   0  0  0  0  0  0
  -10.7136   -5.2806  -14.9621 O   0  0  0  0  0  0
  -10.9149   -8.4158  -11.0919 O   0  0  0  0  0  0
   -9.0437   -2.6611  -10.0494 O   0  0  0  0  0  0
   -9.1478   -1.8914  -11.1639 C   0  0  0  0  0  0
   -8.4657   -1.9817  -12.1669 O   0  0  0  0  0  0
  -10.3214   -0.9664  -10.9955 C   0  0  0  0  0  0
  -11.6183   -1.5449  -11.5838 C   0  0  0  0  0  0
  -12.7613   -0.5220  -11.6080 C   0  0  0  0  0  0
  -12.3309    0.7604  -12.2814 C   0  0  0  0  0  0
  -12.6181    1.0485  -13.4383 O   0  0  0  0  0  0
  -11.6018    1.5610  -11.4900 O   0  0  0  0  0  0
  -11.2743   -1.9821  -13.0143 C   0  0  0  0  0  0
  -10.6507   -3.0015  -13.2685 O   0  0  0  0  0  0
  -11.6723   -1.1258  -13.9652 O   0  0  0  0  0  0
   -6.6958   -3.8485   -7.8403 O   0  0  0  0  0  0
   -5.6831   -4.7857   -7.7213 C   0  0  0  0  0  0
   -5.7181   -5.9130   -8.1971 O   0  0  0  0  0  0
   -4.4888   -4.2558   -6.9169 C   0  0  0  0  0  0
   -4.3864   -4.7608   -5.4442 C   0  0  0  0  0  0
   -5.5254   -4.3976   -4.4741 C   0  0  0  0  0  0
   -5.2751   -3.1188   -3.7281 C   0  0  0  0  0  0
   -5.3577   -2.9717   -2.5164 O   0  0  0  0  0  0
   -4.9193   -2.1120   -4.5405 O   0  0  0  0  0  0
   -4.1341   -6.2670   -5.3027 C   0  0  0  0  0  0
   -4.1083   -7.0243   -6.2527 O   0  0  0  0  0  0
   -3.8333   -6.6896   -4.0568 O   0  0  0  0  0  0
   -7.5898   -8.1296  -13.3791 H   0  0  0  0  0  0
   -6.4121   -8.8527  -14.2224 H   0  0  0  0  0  0
   -7.3903   -6.3817  -17.4430 H   0  0  0  0  0  0
  -10.4783   -4.6600  -14.2479 H   0  0  0  0  0  0
  -11.6231   -9.0742  -11.1887 H   0  0  0  0  0  0
  -11.5246    1.2702  -10.5610 H   0  0  0  0  0  0
  -12.5826   -1.2946  -14.3140 H   0  0  0  0  0  0
   -4.9086   -1.2989   -3.9928 H   0  0  0  0  0  0
   -3.7710   -7.6645   -3.9479 H   0  0  0  0  0  0
  1  2  1  0  0  0
  2  3  1  0  0  0
  3  4  1  0  0  0
  4  5  1  0  0  0
  5  6  1  0  0  0
  5  7  1  0  0  0
  7  8  1  0  0  0
  7 39  1  0  0  0
  8  9  1  0  0  0
  8 27  1  0  0  0
  9 10  1  0  0  0
 10 11  1  0  0  0
 10 12  1  0  0  0
 12 13  1  0  0  0
 13 14  1  0  0  0
 13 26  1  0  0  0
 14 15  1  0  0  0
 15 16  1  0  0  0
 16 17  1  0  0  0
 17 18  1  0  0  0
 18 19  1  0  0  0
 18 25  1  0  0  0
 19 20  1  0  0  0
 20 21  1  0  0  0
 20 24  1  0  0  0
 21 22  1  0  0  0
 21 23  1  0  0  0
 23 51  1  0  0  0
 23 52  1  0  0  0
 24 53  1  0  0  0
 25 54  1  0  0  0
 26 55  1  0  0  0
 27 28  1  0  0  0
 28 29  2  0  0  0
 28 30  1  0  0  0
 30 31  1  0  0  0
 31 32  1  0  0  0
 31 36  1  0  0  0
 32 33  1  0  0  0
 33 34  2  0  0  0
 33 35  1  0  0  0
 35 56  1  0  0  0
 36 37  2  0  0  0
 36 38  1  0  0  0
 38 57  1  0  0  0
 39 40  1  0  0  0
 40 41  2  0  0  0
 40 42  1  0  0  0
 42 43  1  0  0  0
 43 44  1  0  0  0
 43 48  1  0  0  0
 44 45  1  0  0  0
 45 46  2  0  0  0
 45 47  1  0  0  0
 47 58  1  0  0  0
 48 49  2  0  0  0
 48 50  1  0  0  0
 50 59  1  0  0  0
M  END
>  <AUTHOR>
    GENERATED BY OPEN BABEL 2.4.1

>  <CHROM.1>
-71.22914148,-141.45776146,80.30114956,-77.03112007,-102.77648066,125.23418749
40.86229530,170.72594728,82.06586959,-166.02821231,-170.00094571,-57.46122892
-179.22695977,-61.44241141,101.75438257,-40.32760384,139.04879427,-64.35442926
179.04282430,-60.44858810,-53.79827754,60.08204524,-116.03872743,1.80747350
-92.87093683,-171.16417120,52.22582569,76.57484527,100.86789849,-6.52993454
-89.99783830,2.68284887,102.68359166,-62.43572166,-91.45788422,-4.90435436
-129.39022283,171.75038349,173.45103331,-8.60229229,-4.27844650,-10.40822128
0.94949206,-0.85215433,0.90652921

>  <COMPND>
    UNNAMED

>  <MASTER>
        0    0    0    0    0    0    0    0  109    0  109    0

>  <Name>
FB1.pdb

>  <RI>
0

>  <Rbt.Current_Directory>
/home/fc/tossine/FB1_39/p3/0_clust04

>  <Rbt.Executable>
rbdock/0.1.0

>  <Rbt.Library>
librxdock.so/0.1.0

>  <Rbt.Parameter_File>
/cluster/rxdock/data/scripts/dock.prm

>  <Rbt.Receptor>
rx_2.prm

>  <SCORE>
29.9648

>  <SCORE.INTER>
2.50397

>  <SCORE.INTER.CONST>
1

>  <SCORE.INTER.POLAR>
-3.53248

>  <SCORE.INTER.REPUL>
0.165341

>  <SCORE.INTER.ROT>
32

>  <SCORE.INTER.VDW>
-23.7123

>  <SCORE.INTER.norm>
0.0500793

>  <SCORE.INTRA>
23.3195

>  <SCORE.INTRA.DIHEDRAL>
29.8726

>  <SCORE.INTRA.DIHEDRAL.0>
47.3121

>  <SCORE.INTRA.POLAR>
0.548775

>  <SCORE.INTRA.POLAR.0>
-1.47808

>  <SCORE.INTRA.REPUL>
0.0506783

>  <SCORE.INTRA.REPUL.0>
0

>  <SCORE.INTRA.VDW>
6.26398

>  <SCORE.INTRA.VDW.0>
-2.78316

>  <SCORE.INTRA.norm>
0.466391

>  <SCORE.RESTR>
4.14127

>  <SCORE.RESTR.CAVITY>
4.14127

>  <SCORE.RESTR.norm>
0.0828253

>  <SCORE.SYSTEM>
0

>  <SCORE.SYSTEM.CONST>
0

>  <SCORE.SYSTEM.DIHEDRAL>
0

>  <SCORE.SYSTEM.norm>
0

>  <SCORE.heavy>
50

>  <SCORE.norm>
0.599295

$$$$
