FB1.pdb
  RxDock  10062022503D
librxdock.so/0.1.0
 59 58  0  0  0  0  0  0  0  0999 V2000
   -2.9131   -4.8112   -9.4232 C   0  0  0  0  0  0
   -2.3703   -3.4733   -8.9264 C   0  0  0  0  0  0
   -3.1284   -2.9772   -7.6841 C   0  0  0  0  0  0
   -3.2359   -4.0390   -6.5613 C   0  0  0  0  0  0
   -4.3277   -5.1408   -6.7950 C   0  0  0  0  0  0
   -4.0173   -6.3367   -5.8655 C   0  0  0  0  0  0
   -5.8102   -4.6200   -6.5740 C   0  0  0  0  0  0
   -6.1279   -3.9071   -5.1751 C   0  0  0  0  0  0
   -5.0461   -3.2304   -4.2264 C   0  0  0  0  0  0
   -5.3179   -3.4182   -2.6102 C   0  0  0  0  0  0
   -4.6661   -2.2515   -1.8699 C   0  0  0  0  0  0
   -6.8441   -3.5489   -2.1644 C   0  0  0  0  0  0
   -7.5665   -4.9505   -1.8005 C   0  0  0  0  0  0
   -7.4225   -5.6298   -0.3955 C   0  0  0  0  0  0
   -6.8166   -4.7678    0.8040 C   0  0  0  0  0  0
   -7.4417   -3.4167    1.3316 C   0  0  0  0  0  0
   -6.5075   -2.2312    1.6912 C   0  0  0  0  0  0
   -6.3374   -1.1093    0.5949 C   0  0  0  0  0  0
   -7.4363   -1.0300   -0.4722 C   0  0  0  0  0  0
   -8.8790   -0.6666   -0.0193 C   0  0  0  0  0  0
   -9.1156    0.4107    1.0801 C   0  0  0  0  0  0
   -8.7857    0.0039    2.5095 C   0  0  0  0  0  0
   -8.4494    1.6784    0.7256 N   0  0  0  0  0  0
   -9.5148   -0.1345   -1.2094 O   0  0  0  0  0  0
   -6.2611    0.1541    1.2640 O   0  0  0  0  0  0
   -8.9725   -4.6911   -1.9496 O   0  0  0  0  0  0
   -7.0683   -2.8382   -5.4682 O   0  0  0  0  0  0
   -8.3614   -3.1955   -5.6815 C   0  0  0  0  0  0
   -8.7894   -3.8088   -6.6408 O   0  0  0  0  0  0
   -9.1706   -2.7946   -4.4791 C   0  0  0  0  0  0
  -10.3514   -1.8795   -4.8407 C   0  0  0  0  0  0
   -9.9201   -0.6601   -5.6655 C   0  0  0  0  0  0
  -11.0980    0.2358   -5.9708 C   0  0  0  0  0  0
  -11.4357    1.1775   -5.2616 O   0  0  0  0  0  0
  -11.7436   -0.0960   -7.0986 O   0  0  0  0  0  0
  -11.3233   -2.7462   -5.6533 C   0  0  0  0  0  0
  -11.2766   -2.8385   -6.8705 O   0  0  0  0  0  0
  -12.2636   -3.3583   -4.9204 O   0  0  0  0  0  0
   -6.2700   -3.8082   -7.7270 O   0  0  0  0  0  0
   -6.0278   -4.2826   -9.0054 C   0  0  0  0  0  0
   -5.5037   -3.6337   -9.9013 O   0  0  0  0  0  0
   -6.4921   -5.7337   -9.1874 C   0  0  0  0  0  0
   -6.6340   -6.2194  -10.6634 C   0  0  0  0  0  0
   -8.0291   -6.6496  -11.1524 C   0  0  0  0  0  0
   -9.0213   -5.5228  -11.1597 C   0  0  0  0  0  0
   -9.7961   -5.2483  -10.2536 O   0  0  0  0  0  0
   -8.9689   -4.8002  -12.2891 O   0  0  0  0  0  0
   -6.0652   -5.2534  -11.7101 C   0  0  0  0  0  0
   -6.6331   -4.2322  -12.0436 O   0  0  0  0  0  0
   -4.8313   -5.5544  -12.1663 O   0  0  0  0  0  0
   -7.4463    1.5177    0.6456 H   0  0  0  0  0  0
   -8.5503    2.3301    1.5070 H   0  0  0  0  0  0
   -9.0185    0.6875   -1.4076 H   0  0  0  0  0  0
   -5.6315    0.0691    2.0035 H   0  0  0  0  0  0
   -9.2176   -3.9915   -1.3210 H   0  0  0  0  0  0
  -11.3450   -0.8284   -7.6067 H   0  0  0  0  0  0
  -12.3085   -3.0592   -3.9784 H   0  0  0  0  0  0
   -8.1932   -5.1235  -12.7941 H   0  0  0  0  0  0
   -4.4466   -6.3887  -11.8168 H   0  0  0  0  0  0
  1  2  1  0  0  0
  2  3  1  0  0  0
  3  4  1  0  0  0
  4  5  1  0  0  0
  5  6  1  0  0  0
  5  7  1  0  0  0
  7  8  1  0  0  0
  7 39  1  0  0  0
  8  9  1  0  0  0
  8 27  1  0  0  0
  9 10  1  0  0  0
 10 11  1  0  0  0
 10 12  1  0  0  0
 12 13  1  0  0  0
 13 14  1  0  0  0
 13 26  1  0  0  0
 14 15  1  0  0  0
 15 16  1  0  0  0
 16 17  1  0  0  0
 17 18  1  0  0  0
 18 19  1  0  0  0
 18 25  1  0  0  0
 19 20  1  0  0  0
 20 21  1  0  0  0
 20 24  1  0  0  0
 21 22  1  0  0  0
 21 23  1  0  0  0
 23 51  1  0  0  0
 23 52  1  0  0  0
 24 53  1  0  0  0
 25 54  1  0  0  0
 26 55  1  0  0  0
 27 28  1  0  0  0
 28 29  2  0  0  0
 28 30  1  0  0  0
 30 31  1  0  0  0
 31 32  1  0  0  0
 31 36  1  0  0  0
 32 33  1  0  0  0
 33 34  2  0  0  0
 33 35  1  0  0  0
 35 56  1  0  0  0
 36 37  2  0  0  0
 36 38  1  0  0  0
 38 57  1  0  0  0
 39 40  1  0  0  0
 40 41  2  0  0  0
 40 42  1  0  0  0
 42 43  1  0  0  0
 43 44  1  0  0  0
 43 48  1  0  0  0
 44 45  1  0  0  0
 45 46  2  0  0  0
 45 47  1  0  0  0
 47 58  1  0  0  0
 48 49  2  0  0  0
 48 50  1  0  0  0
 50 59  1  0  0  0
M  END
>  <AUTHOR>
    GENERATED BY OPEN BABEL 2.4.1

>  <CHROM.1>
50.91672025,-78.06446801,162.18489646,-53.56886495,22.49380858,45.37664037
-143.26261543,77.00439108,-153.67564903,101.27581070,81.56703136,13.59720340
-61.03910171,59.02084344,-138.38970567,98.35722320,20.50135684,63.98286386
47.05799608,39.22560041,-73.72287336,-64.95717862,-60.79028972,-69.40662363
124.02717936,-52.70491933,-178.45926796,-90.70865185,91.66393038,-3.73971340
9.72847754,-129.04538487,163.49045579,-117.90445861,64.29545326,-75.94989220
-93.68178222,-7.51332278,3.23052698,-7.44204598,-3.12471946,-5.20373391,-1.41510712
-0.40386397,1.29690034

>  <COMPND>
    UNNAMED

>  <MASTER>
        0    0    0    0    0    0    0    0  109    0  109    0

>  <Name>
FB1.pdb

>  <RI>
0

>  <Rbt.Current_Directory>
/home/fc/tossine/FB1_39/p3/0_clust04

>  <Rbt.Executable>
rbdock/0.1.0

>  <Rbt.Library>
librxdock.so/0.1.0

>  <Rbt.Parameter_File>
/cluster/rxdock/data/scripts/dock.prm

>  <Rbt.Receptor>
rx_4.prm

>  <SCORE>
63.6427

>  <SCORE.INTER>
16.5648

>  <SCORE.INTER.CONST>
1

>  <SCORE.INTER.POLAR>
-1.28906

>  <SCORE.INTER.REPUL>
0.63242

>  <SCORE.INTER.ROT>
32

>  <SCORE.INTER.VDW>
-19.6145

>  <SCORE.INTER.norm>
0.331296

>  <SCORE.INTRA>
35.3669

>  <SCORE.INTRA.DIHEDRAL>
53.8299

>  <SCORE.INTRA.DIHEDRAL.0>
47.3121

>  <SCORE.INTRA.POLAR>
0.67375

>  <SCORE.INTRA.POLAR.0>
-1.47808

>  <SCORE.INTRA.REPUL>
0.0901284

>  <SCORE.INTRA.REPUL.0>
0

>  <SCORE.INTRA.VDW>
5.71055

>  <SCORE.INTRA.VDW.0>
-2.78316

>  <SCORE.INTRA.norm>
0.707337

>  <SCORE.RESTR>
11.7111

>  <SCORE.RESTR.CAVITY>
11.7111

>  <SCORE.RESTR.norm>
0.234221

>  <SCORE.SYSTEM>
0

>  <SCORE.SYSTEM.CONST>
0

>  <SCORE.SYSTEM.DIHEDRAL>
0

>  <SCORE.SYSTEM.norm>
0

>  <SCORE.heavy>
50

>  <SCORE.norm>
1.27285

$$$$
