FB1.pdb
  RxDock  10062022173D
librxdock.so/0.1.0
 59 58  0  0  0  0  0  0  0  0999 V2000
   -4.6244   -4.8519   -8.5631 C   0  0  0  0  0  0
   -5.6188   -4.5798   -9.6894 C   0  0  0  0  0  0
   -7.0594   -4.4709   -9.1631 C   0  0  0  0  0  0
   -7.4217   -3.0573   -8.6433 C   0  0  0  0  0  0
   -6.4004   -2.4464   -7.6214 C   0  0  0  0  0  0
   -6.0679   -1.0046   -8.0703 C   0  0  0  0  0  0
   -6.9158   -2.4688   -6.1208 C   0  0  0  0  0  0
   -8.4771   -2.7463   -5.8939 C   0  0  0  0  0  0
   -9.2588   -2.5144   -4.5288 C   0  0  0  0  0  0
   -8.5550   -3.1868   -3.1969 C   0  0  0  0  0  0
   -9.4970   -3.0072   -2.0076 C   0  0  0  0  0  0
   -8.1374   -4.7214   -3.3214 C   0  0  0  0  0  0
   -7.4392   -5.5712   -2.1344 C   0  0  0  0  0  0
   -6.4271   -4.9292   -1.1247 C   0  0  0  0  0  0
   -6.5194   -3.3581   -0.8556 C   0  0  0  0  0  0
   -6.3400   -2.6874    0.5630 C   0  0  0  0  0  0
   -7.1523   -1.4130    0.9145 C   0  0  0  0  0  0
   -6.9064   -0.1468    0.0060 C   0  0  0  0  0  0
   -7.2389    1.2134    0.6320 C   0  0  0  0  0  0
   -8.6447    1.8232    0.3668 C   0  0  0  0  0  0
   -8.8522    3.3667    0.3760 C   0  0  0  0  0  0
   -8.3623    4.1089    1.6115 C   0  0  0  0  0  0
   -8.3128    3.9768   -0.8542 N   0  0  0  0  0  0
   -8.9771    1.4077   -0.9825 O   0  0  0  0  0  0
   -5.5288   -0.1435   -0.3836 O   0  0  0  0  0  0
   -8.5305   -6.0403   -1.3247 O   0  0  0  0  0  0
   -9.1815   -1.9166   -6.8572 O   0  0  0  0  0  0
  -10.4730   -2.2424   -7.1242 C   0  0  0  0  0  0
  -11.4437   -1.9422   -6.4556 O   0  0  0  0  0  0
  -10.5201   -2.9556   -8.4473 C   0  0  0  0  0  0
  -10.6217   -1.9872   -9.6366 C   0  0  0  0  0  0
  -10.0930   -2.5986  -10.9404 C   0  0  0  0  0  0
  -10.8228   -3.8781  -11.2776 C   0  0  0  0  0  0
  -11.2724   -4.6453  -10.4332 O   0  0  0  0  0  0
  -10.9356   -4.0974  -12.5960 O   0  0  0  0  0  0
  -12.1123   -1.6509   -9.7807 C   0  0  0  0  0  0
  -12.8115   -2.0916  -10.6803 O   0  0  0  0  0  0
  -12.5765   -0.7910   -8.8636 O   0  0  0  0  0  0
   -6.0685   -3.3460   -5.2767 O   0  0  0  0  0  0
   -6.0866   -4.7097   -5.5177 C   0  0  0  0  0  0
   -6.7330   -5.2516   -6.4048 O   0  0  0  0  0  0
   -5.1953   -5.4872   -4.5402 C   0  0  0  0  0  0
   -3.6601   -5.2518   -4.6896 C   0  0  0  0  0  0
   -2.9041   -4.6325   -3.4999 C   0  0  0  0  0  0
   -3.3281   -3.2226   -3.2053 C   0  0  0  0  0  0
   -4.2750   -2.8940   -2.5039 O   0  0  0  0  0  0
   -2.5313   -2.3145   -3.7892 O   0  0  0  0  0  0
   -2.8665   -6.4853   -5.1379 C   0  0  0  0  0  0
   -1.8038   -6.4102   -5.7224 O   0  0  0  0  0  0
   -3.3724   -7.6736   -4.7461 O   0  0  0  0  0  0
   -8.0324    4.9362   -0.6559 H   0  0  0  0  0  0
   -9.0695    4.0592   -1.5369 H   0  0  0  0  0  0
   -8.4279    1.9797   -1.5591 H   0  0  0  0  0  0
   -5.4260   -0.7463   -1.1429 H   0  0  0  0  0  0
   -9.0333   -5.2664   -1.0200 H   0  0  0  0  0  0
  -11.4086   -4.9150  -12.8434 H   0  0  0  0  0  0
  -13.5382   -0.5764   -8.9523 H   0  0  0  0  0  0
   -1.9426   -2.8075   -4.3989 H   0  0  0  0  0  0
   -3.8322   -7.6680   -3.8773 H   0  0  0  0  0  0
  1  2  1  0  0  0
  2  3  1  0  0  0
  3  4  1  0  0  0
  4  5  1  0  0  0
  5  6  1  0  0  0
  5  7  1  0  0  0
  7  8  1  0  0  0
  7 39  1  0  0  0
  8  9  1  0  0  0
  8 27  1  0  0  0
  9 10  1  0  0  0
 10 11  1  0  0  0
 10 12  1  0  0  0
 12 13  1  0  0  0
 13 14  1  0  0  0
 13 26  1  0  0  0
 14 15  1  0  0  0
 15 16  1  0  0  0
 16 17  1  0  0  0
 17 18  1  0  0  0
 18 19  1  0  0  0
 18 25  1  0  0  0
 19 20  1  0  0  0
 20 21  1  0  0  0
 20 24  1  0  0  0
 21 22  1  0  0  0
 21 23  1  0  0  0
 23 51  1  0  0  0
 23 52  1  0  0  0
 24 53  1  0  0  0
 25 54  1  0  0  0
 26 55  1  0  0  0
 27 28  1  0  0  0
 28 29  2  0  0  0
 28 30  1  0  0  0
 30 31  1  0  0  0
 31 32  1  0  0  0
 31 36  1  0  0  0
 32 33  1  0  0  0
 33 34  2  0  0  0
 33 35  1  0  0  0
 35 56  1  0  0  0
 36 37  2  0  0  0
 36 38  1  0  0  0
 38 57  1  0  0  0
 39 40  1  0  0  0
 40 41  2  0  0  0
 40 42  1  0  0  0
 42 43  1  0  0  0
 43 44  1  0  0  0
 43 48  1  0  0  0
 44 45  1  0  0  0
 45 46  2  0  0  0
 45 47  1  0  0  0
 47 58  1  0  0  0
 48 49  2  0  0  0
 48 50  1  0  0  0
 50 59  1  0  0  0
M  END
>  <AUTHOR>
    GENERATED BY OPEN BABEL 2.4.1

>  <CHROM.1>
84.59537114,-50.62412961,131.52744902,-14.74519469,-166.45440688,-67.17447156
-50.12579101,161.95317152,-173.91136938,-179.80996541,-34.49752763,25.20645809
-57.70431878,140.20082156,-146.43368009,-60.85428195,-156.65347472,-94.50724664
81.87996555,-151.95134468,-52.98880770,-75.08087681,-152.18656969,81.57649819
-86.21613833,155.95457015,57.14054515,-106.61110471,-31.60855110,-179.60858139
-179.71609454,1.76047991,-68.16472610,117.70608082,-65.38328891,154.63680780
85.63853261,9.33739839,-32.58098551,-7.50724467,-2.70703521,-4.96237965,-1.94474342
-0.65302654,1.04201795

>  <COMPND>
    UNNAMED

>  <MASTER>
        0    0    0    0    0    0    0    0  109    0  109    0

>  <Name>
FB1.pdb

>  <RI>
0

>  <Rbt.Current_Directory>
/home/fc/tossine/FB1_39/p3/0_clust04

>  <Rbt.Executable>
rbdock/0.1.0

>  <Rbt.Library>
librxdock.so/0.1.0

>  <Rbt.Parameter_File>
/cluster/rxdock/data/scripts/dock.prm

>  <Rbt.Receptor>
rx_3.prm

>  <SCORE>
47.3263

>  <SCORE.INTER>
12.2069

>  <SCORE.INTER.CONST>
1

>  <SCORE.INTER.POLAR>
-1.15788

>  <SCORE.INTER.REPUL>
0.945875

>  <SCORE.INTER.ROT>
32

>  <SCORE.INTER.VDW>
-25.9857

>  <SCORE.INTER.norm>
0.244138

>  <SCORE.INTRA>
28.9503

>  <SCORE.INTRA.DIHEDRAL>
46.1697

>  <SCORE.INTRA.DIHEDRAL.0>
47.3121

>  <SCORE.INTRA.POLAR>
1.24668

>  <SCORE.INTRA.POLAR.0>
-1.47808

>  <SCORE.INTRA.REPUL>
0

>  <SCORE.INTRA.REPUL.0>
0

>  <SCORE.INTRA.VDW>
1.62669

>  <SCORE.INTRA.VDW.0>
-2.78316

>  <SCORE.INTRA.norm>
0.579006

>  <SCORE.RESTR>
6.16917

>  <SCORE.RESTR.CAVITY>
6.16917

>  <SCORE.RESTR.norm>
0.123383

>  <SCORE.SYSTEM>
0

>  <SCORE.SYSTEM.CONST>
0

>  <SCORE.SYSTEM.DIHEDRAL>
0

>  <SCORE.SYSTEM.norm>
0

>  <SCORE.heavy>
50

>  <SCORE.norm>
0.946527

$$$$
