FB1.pdb
  RxDock  10062022253D
librxdock.so/0.1.0
 59 58  0  0  0  0  0  0  0  0999 V2000
   -1.7017   -6.4330   -6.5995 C   0  0  0  0  0  0
   -2.7867   -6.0286   -7.5947 C   0  0  0  0  0  0
   -4.1635   -6.5825   -7.1923 C   0  0  0  0  0  0
   -5.3137   -6.1085   -8.1154 C   0  0  0  0  0  0
   -5.7262   -4.6054   -7.9399 C   0  0  0  0  0  0
   -4.7027   -3.7293   -8.6986 C   0  0  0  0  0  0
   -7.2060   -4.2945   -8.4208 C   0  0  0  0  0  0
   -7.7268   -2.7903   -8.2405 C   0  0  0  0  0  0
   -6.7960   -1.5043   -8.1515 C   0  0  0  0  0  0
   -5.9187   -1.3707   -6.7609 C   0  0  0  0  0  0
   -5.7735    0.1114   -6.4194 C   0  0  0  0  0  0
   -6.4844   -2.1584   -5.4943 C   0  0  0  0  0  0
   -7.9808   -2.7667   -5.3978 C   0  0  0  0  0  0
   -8.4747   -3.5902   -4.1592 C   0  0  0  0  0  0
   -7.7750   -4.9925   -3.8542 C   0  0  0  0  0  0
   -8.0117   -5.8366   -2.5404 C   0  0  0  0  0  0
   -7.0032   -5.7232   -1.3667 C   0  0  0  0  0  0
   -6.8760   -4.3085   -0.6800 C   0  0  0  0  0  0
   -5.4618   -3.7216   -0.5903 C   0  0  0  0  0  0
   -4.8233   -3.1357   -1.8816 C   0  0  0  0  0  0
   -3.6222   -2.1484   -1.7928 C   0  0  0  0  0  0
   -2.9397   -1.7919   -3.1059 C   0  0  0  0  0  0
   -3.9957   -0.9324   -1.0456 N   0  0  0  0  0  0
   -4.3086   -4.2899   -2.5934 O   0  0  0  0  0  0
   -7.7042   -3.3908   -1.4023 O   0  0  0  0  0  0
   -8.8494   -1.6228   -5.4584 O   0  0  0  0  0  0
   -8.6005   -2.5246   -9.3712 O   0  0  0  0  0  0
   -9.9312   -2.7219   -9.1822 C   0  0  0  0  0  0
  -10.5094   -2.7505   -8.1125 O   0  0  0  0  0  0
  -10.5968   -2.7993  -10.5284 C   0  0  0  0  0  0
  -11.8421   -1.9034  -10.6237 C   0  0  0  0  0  0
  -11.9096   -0.8672   -9.4944 C   0  0  0  0  0  0
  -13.1931   -0.0725   -9.5597 C   0  0  0  0  0  0
  -13.3554    0.8946  -10.2959 O   0  0  0  0  0  0
  -14.1461   -0.5277   -8.7329 O   0  0  0  0  0  0
  -11.7490   -1.1947  -11.9820 C   0  0  0  0  0  0
  -12.0518   -0.0224  -12.1448 O   0  0  0  0  0  0
  -11.3535   -1.9829  -12.9911 O   0  0  0  0  0  0
   -7.4400   -4.8011   -9.7950 O   0  0  0  0  0  0
   -8.6363   -5.4444  -10.0655 C   0  0  0  0  0  0
   -9.6845   -5.2468   -9.4649 O   0  0  0  0  0  0
   -8.5112   -6.4493  -11.2182 C   0  0  0  0  0  0
   -8.0094   -5.8648  -12.5750 C   0  0  0  0  0  0
   -6.7406   -6.4734  -13.1998 C   0  0  0  0  0  0
   -5.5873   -6.5377  -12.2405 C   0  0  0  0  0  0
   -4.9740   -5.5768  -11.7966 O   0  0  0  0  0  0
   -5.2870   -7.7955  -11.8827 O   0  0  0  0  0  0
   -9.0742   -5.8072  -13.6773 C   0  0  0  0  0  0
   -8.8744   -6.2009  -14.8095 O   0  0  0  0  0  0
  -10.2943   -5.3866  -13.2829 O   0  0  0  0  0  0
   -4.7326   -0.4427   -1.5513 H   0  0  0  0  0  0
   -3.2009   -0.2892   -1.0500 H   0  0  0  0  0  0
   -5.0991   -4.8416   -2.7730 H   0  0  0  0  0  0
   -8.6352   -3.6390   -1.2530 H   0  0  0  0  0  0
   -8.8176   -1.2687   -6.3629 H   0  0  0  0  0  0
  -13.8556   -1.2106   -8.0983 H   0  0  0  0  0  0
  -11.2022   -1.5092  -13.8464 H   0  0  0  0  0  0
   -6.0436   -8.1258  -11.3537 H   0  0  0  0  0  0
  -10.9906   -5.4097  -13.9763 H   0  0  0  0  0  0
  1  2  1  0  0  0
  2  3  1  0  0  0
  3  4  1  0  0  0
  4  5  1  0  0  0
  5  6  1  0  0  0
  5  7  1  0  0  0
  7  8  1  0  0  0
  7 39  1  0  0  0
  8  9  1  0  0  0
  8 27  1  0  0  0
  9 10  1  0  0  0
 10 11  1  0  0  0
 10 12  1  0  0  0
 12 13  1  0  0  0
 13 14  1  0  0  0
 13 26  1  0  0  0
 14 15  1  0  0  0
 15 16  1  0  0  0
 16 17  1  0  0  0
 17 18  1  0  0  0
 18 19  1  0  0  0
 18 25  1  0  0  0
 19 20  1  0  0  0
 20 21  1  0  0  0
 20 24  1  0  0  0
 21 22  1  0  0  0
 21 23  1  0  0  0
 23 51  1  0  0  0
 23 52  1  0  0  0
 24 53  1  0  0  0
 25 54  1  0  0  0
 26 55  1  0  0  0
 27 28  1  0  0  0
 28 29  2  0  0  0
 28 30  1  0  0  0
 30 31  1  0  0  0
 31 32  1  0  0  0
 31 36  1  0  0  0
 32 33  1  0  0  0
 33 34  2  0  0  0
 33 35  1  0  0  0
 35 56  1  0  0  0
 36 37  2  0  0  0
 36 38  1  0  0  0
 38 57  1  0  0  0
 39 40  1  0  0  0
 40 41  2  0  0  0
 40 42  1  0  0  0
 42 43  1  0  0  0
 43 44  1  0  0  0
 43 48  1  0  0  0
 44 45  1  0  0  0
 45 46  2  0  0  0
 45 47  1  0  0  0
 47 58  1  0  0  0
 48 49  2  0  0  0
 48 50  1  0  0  0
 50 59  1  0  0  0
M  END
>  <AUTHOR>
    GENERATED BY OPEN BABEL 2.4.1

>  <CHROM.1>
175.66452261,-72.60366022,79.41367638,178.35204574,24.17577040,137.21910099
-70.60548190,94.74418320,-146.74257242,-14.59475767,177.18369453,-64.66712556
70.79993317,170.86564927,-97.01740856,63.30379097,-126.18226292,75.28502441
68.25144955,160.79492833,171.32515942,60.94960073,-63.19999545,20.87729277
-131.36533143,15.48895695,-175.84514627,-140.13941076,-82.39062012,9.34120074
-173.95362475,26.85359373,-57.53534584,122.47544887,-51.30069985,-132.49885845
-68.62796499,-67.17071771,-175.94087948,-7.70930305,-3.61945369,-7.85864816
-0.94362743,0.61334976,-1.95029183

>  <COMPND>
    UNNAMED

>  <MASTER>
        0    0    0    0    0    0    0    0  109    0  109    0

>  <Name>
FB1.pdb

>  <RI>
0

>  <Rbt.Current_Directory>
/home/fc/tossine/FB1_39/p3/0_clust04

>  <Rbt.Executable>
rbdock/0.1.0

>  <Rbt.Library>
librxdock.so/0.1.0

>  <Rbt.Parameter_File>
/cluster/rxdock/data/scripts/dock.prm

>  <Rbt.Receptor>
rx_3.prm

>  <SCORE>
43.7069

>  <SCORE.INTER>
10.9571

>  <SCORE.INTER.CONST>
1

>  <SCORE.INTER.POLAR>
-3.19893

>  <SCORE.INTER.REPUL>
0.393214

>  <SCORE.INTER.ROT>
32

>  <SCORE.INTER.VDW>
-17.5326

>  <SCORE.INTER.norm>
0.219142

>  <SCORE.INTRA>
29.1204

>  <SCORE.INTRA.DIHEDRAL>
41.1208

>  <SCORE.INTRA.DIHEDRAL.0>
47.3121

>  <SCORE.INTRA.POLAR>
1.47808

>  <SCORE.INTRA.POLAR.0>
-1.47808

>  <SCORE.INTRA.REPUL>
0.0385129

>  <SCORE.INTRA.REPUL.0>
0

>  <SCORE.INTRA.VDW>
3.34197

>  <SCORE.INTRA.VDW.0>
-2.78316

>  <SCORE.INTRA.norm>
0.582408

>  <SCORE.RESTR>
3.62941

>  <SCORE.RESTR.CAVITY>
3.62941

>  <SCORE.RESTR.norm>
0.0725882

>  <SCORE.SYSTEM>
0

>  <SCORE.SYSTEM.CONST>
0

>  <SCORE.SYSTEM.DIHEDRAL>
0

>  <SCORE.SYSTEM.norm>
0

>  <SCORE.heavy>
50

>  <SCORE.norm>
0.874139

$$$$
