FB1.pdb
  RxDock  09132003143D
librxdock.so/0.1.0
 59 58  0  0  0  0  0  0  0  0999 V2000
   -2.9978   -4.5951   -7.8437 C   0  0  0  0  0  0
   -4.4713   -4.9839   -7.7489 C   0  0  0  0  0  0
   -5.3818   -3.7479   -7.6621 C   0  0  0  0  0  0
   -6.6246   -3.8306   -8.5833 C   0  0  0  0  0  0
   -7.4043   -2.4817   -8.7649 C   0  0  0  0  0  0
   -7.3966   -2.1150  -10.2670 C   0  0  0  0  0  0
   -8.8861   -2.5256   -8.1990 C   0  0  0  0  0  0
   -9.9863   -3.2604   -9.1022 C   0  0  0  0  0  0
  -10.7077   -4.6285   -8.7332 C   0  0  0  0  0  0
  -11.2549   -5.5005  -10.0222 C   0  0  0  0  0  0
  -12.5511   -4.8651  -10.5225 C   0  0  0  0  0  0
  -10.2377   -5.6700  -11.2393 C   0  0  0  0  0  0
   -9.7152   -4.4479  -12.1623 C   0  0  0  0  0  0
   -8.2392   -4.3587  -12.6815 C   0  0  0  0  0  0
   -7.4731   -5.7172  -13.0231 C   0  0  0  0  0  0
   -7.6511   -6.5235  -14.3695 C   0  0  0  0  0  0
   -7.5874   -8.0736  -14.3466 C   0  0  0  0  0  0
   -7.6902   -8.7631  -12.9313 C   0  0  0  0  0  0
   -6.3804   -8.8984  -12.1447 C   0  0  0  0  0  0
   -5.5078   -7.6274  -11.9414 C   0  0  0  0  0  0
   -5.7631   -6.6770  -10.7344 C   0  0  0  0  0  0
   -5.2175   -5.2613  -10.8596 C   0  0  0  0  0  0
   -7.1930   -6.6608  -10.3715 N   0  0  0  0  0  0
   -4.1627   -8.1328  -11.7433 O   0  0  0  0  0  0
   -8.6197   -8.0137  -12.1413 O   0  0  0  0  0  0
  -10.5268   -4.5065  -13.3474 O   0  0  0  0  0  0
  -11.0755   -2.3125   -9.2673 O   0  0  0  0  0  0
  -11.5093   -1.6707   -8.1514 C   0  0  0  0  0  0
  -11.0050   -1.7290   -7.0461 O   0  0  0  0  0  0
  -12.6663   -0.7876   -8.5295 C   0  0  0  0  0  0
  -12.9846   -0.8429  -10.0322 C   0  0  0  0  0  0
  -14.4924   -0.8710  -10.3139 C   0  0  0  0  0  0
  -14.9242    0.3495  -11.0930 C   0  0  0  0  0  0
  -14.7646    0.4737  -12.3025 O   0  0  0  0  0  0
  -15.5041    1.2907  -10.3335 O   0  0  0  0  0  0
  -12.3597    0.4193  -10.6425 C   0  0  0  0  0  0
  -12.8640    1.5276  -10.5441 O   0  0  0  0  0  0
  -11.2356    0.1990  -11.3380 O   0  0  0  0  0  0
   -8.9094   -3.0065   -6.7962 O   0  0  0  0  0  0
   -8.5850   -2.1140   -5.7880 C   0  0  0  0  0  0
   -9.1172   -1.0238   -5.6253 O   0  0  0  0  0  0
   -7.4686   -2.6423   -4.8776 C   0  0  0  0  0  0
   -7.9366   -3.4897   -3.6539 C   0  0  0  0  0  0
   -6.9097   -4.4204   -2.9834 C   0  0  0  0  0  0
   -7.5391   -5.4090   -2.0448 C   0  0  0  0  0  0
   -7.7437   -5.2301   -0.8520 O   0  0  0  0  0  0
   -7.8899   -6.5488   -2.6597 O   0  0  0  0  0  0
   -8.6108   -2.6809   -2.5387 C   0  0  0  0  0  0
   -8.1757   -2.6290   -1.4052 O   0  0  0  0  0  0
   -9.6691   -1.9362   -2.9217 O   0  0  0  0  0  0
   -7.3926   -5.8162   -9.8375 H   0  0  0  0  0  0
   -7.3743   -7.4310   -9.7238 H   0  0  0  0  0  0
   -4.2850   -9.0810  -11.5259 H   0  0  0  0  0  0
   -9.4140   -7.8480  -12.6818 H   0  0  0  0  0  0
  -11.3757   -4.0754  -13.1521 H   0  0  0  0  0  0
  -15.1059    1.4177   -9.4511 H   0  0  0  0  0  0
  -10.5119    0.8510  -11.1649 H   0  0  0  0  0  0
   -8.3045   -7.1197   -1.9789 H   0  0  0  0  0  0
  -10.2550   -1.6334   -2.1928 H   0  0  0  0  0  0
  1  2  1  0  0  0
  2  3  1  0  0  0
  3  4  1  0  0  0
  4  5  1  0  0  0
  5  6  1  0  0  0
  5  7  1  0  0  0
  7  8  1  0  0  0
  7 39  1  0  0  0
  8  9  1  0  0  0
  8 27  1  0  0  0
  9 10  1  0  0  0
 10 11  1  0  0  0
 10 12  1  0  0  0
 12 13  1  0  0  0
 13 14  1  0  0  0
 13 26  1  0  0  0
 14 15  1  0  0  0
 15 16  1  0  0  0
 16 17  1  0  0  0
 17 18  1  0  0  0
 18 19  1  0  0  0
 18 25  1  0  0  0
 19 20  1  0  0  0
 20 21  1  0  0  0
 20 24  1  0  0  0
 21 22  1  0  0  0
 21 23  1  0  0  0
 23 51  1  0  0  0
 23 52  1  0  0  0
 24 53  1  0  0  0
 25 54  1  0  0  0
 26 55  1  0  0  0
 27 28  1  0  0  0
 28 29  2  0  0  0
 28 30  1  0  0  0
 30 31  1  0  0  0
 31 32  1  0  0  0
 31 36  1  0  0  0
 32 33  1  0  0  0
 33 34  2  0  0  0
 33 35  1  0  0  0
 35 56  1  0  0  0
 36 37  2  0  0  0
 36 38  1  0  0  0
 38 57  1  0  0  0
 39 40  1  0  0  0
 40 41  2  0  0  0
 40 42  1  0  0  0
 42 43  1  0  0  0
 43 44  1  0  0  0
 43 48  1  0  0  0
 44 45  1  0  0  0
 45 46  2  0  0  0
 45 47  1  0  0  0
 47 58  1  0  0  0
 48 49  2  0  0  0
 48 50  1  0  0  0
 50 59  1  0  0  0
M  END
>  <AUTHOR>
    GENERATED BY OPEN BABEL 2.4.1

>  <CHROM.1>
135.07793975,-167.21627324,119.86063932,-78.09906997,111.69773962,79.54786827
-154.20248505,-46.62300353,-77.65771691,-65.52773741,141.45362812,33.46915302
81.16316743,80.53449460,-145.01342721,14.15879428,-85.18377027,51.95160794
47.13241876,87.17872736,-159.89617047,-17.02861071,-159.58584978,6.45232058
-1.42982220,139.07017125,117.36089206,-77.38699501,79.00047400,38.69443396
-136.28486937,53.83148154,-89.00028401,160.12714524,-166.45863281,-119.41637870
-89.75691733,-178.87731435,162.83684448,-9.08449331,-3.73195829,-8.85646940
-0.43919842,-0.71667832,1.28163565

>  <COMPND>
    UNNAMED

>  <MASTER>
        0    0    0    0    0    0    0    0  109    0  109    0

>  <Name>
FB1.pdb

>  <RI>
0

>  <Rbt.Current_Directory>
/home/fc/tossine/FB1_39/p3/0_clust04

>  <Rbt.Executable>
rbdock/0.1.0

>  <Rbt.Library>
librxdock.so/0.1.0

>  <Rbt.Parameter_File>
/cluster/rxdock/data/scripts/dock.prm

>  <Rbt.Receptor>
rx_2.prm

>  <SCORE>
157.503

>  <SCORE.INTER>
96.8082

>  <SCORE.INTER.CONST>
1

>  <SCORE.INTER.POLAR>
-1.01233

>  <SCORE.INTER.REPUL>
0.510397

>  <SCORE.INTER.ROT>
32

>  <SCORE.INTER.VDW>
60.2982

>  <SCORE.INTER.norm>
1.93616

>  <SCORE.INTRA>
54.2612

>  <SCORE.INTRA.DIHEDRAL>
74.1766

>  <SCORE.INTRA.DIHEDRAL.0>
47.3121

>  <SCORE.INTRA.POLAR>
1.47808

>  <SCORE.INTRA.POLAR.0>
-1.47808

>  <SCORE.INTRA.REPUL>
0.713631

>  <SCORE.INTRA.REPUL.0>
0

>  <SCORE.INTRA.VDW>
8.57925

>  <SCORE.INTRA.VDW.0>
-2.78316

>  <SCORE.INTRA.norm>
1.08522

>  <SCORE.RESTR>
6.43333

>  <SCORE.RESTR.CAVITY>
6.43333

>  <SCORE.RESTR.norm>
0.128667

>  <SCORE.SYSTEM>
0

>  <SCORE.SYSTEM.CONST>
0

>  <SCORE.SYSTEM.DIHEDRAL>
0

>  <SCORE.SYSTEM.norm>
0

>  <SCORE.heavy>
50

>  <SCORE.norm>
3.15005

$$$$
