FB1.pdb
  RxDock  10062022253D
librxdock.so/0.1.0
 59 58  0  0  0  0  0  0  0  0999 V2000
   -7.0613   -1.7948   -9.3455 C   0  0  0  0  0  0
   -6.0085   -1.0061   -8.5703 C   0  0  0  0  0  0
   -5.6604   -1.6821   -7.2338 C   0  0  0  0  0  0
   -4.3810   -2.5532   -7.2973 C   0  0  0  0  0  0
   -4.4964   -3.8335   -8.1962 C   0  0  0  0  0  0
   -3.4275   -4.8501   -7.7327 C   0  0  0  0  0  0
   -5.9426   -4.4864   -8.1857 C   0  0  0  0  0  0
   -6.3265   -5.4197   -9.4298 C   0  0  0  0  0  0
   -7.7483   -6.0913   -9.6654 C   0  0  0  0  0  0
   -8.8226   -5.1742  -10.5176 C   0  0  0  0  0  0
   -9.9571   -6.0774  -10.9984 C   0  0  0  0  0  0
   -9.4305   -3.9123   -9.7542 C   0  0  0  0  0  0
  -10.2634   -4.0036   -8.3698 C   0  0  0  0  0  0
  -11.1283   -2.8136   -7.8296 C   0  0  0  0  0  0
  -11.1867   -1.4688   -8.6883 C   0  0  0  0  0  0
  -11.2512   -1.4239  -10.2658 C   0  0  0  0  0  0
  -12.5989   -1.1090  -10.9672 C   0  0  0  0  0  0
  -13.1415    0.3655  -10.8234 C   0  0  0  0  0  0
  -13.6236    0.7789   -9.4272 C   0  0  0  0  0  0
  -14.0086   -0.3405   -8.4187 C   0  0  0  0  0  0
  -14.4389    0.0175   -6.9654 C   0  0  0  0  0  0
  -13.4197   -0.2601   -5.8693 C   0  0  0  0  0  0
  -14.9296    1.4068   -6.8898 N   0  0  0  0  0  0
  -15.1691   -0.9818   -9.0067 O   0  0  0  0  0  0
  -12.1004    1.2608  -11.2286 O   0  0  0  0  0  0
  -11.1922   -5.0828   -8.5679 O   0  0  0  0  0  0
   -6.1049   -4.6188  -10.6223 O   0  0  0  0  0  0
   -5.4085   -5.1988  -11.6342 C   0  0  0  0  0  0
   -4.3013   -5.6958  -11.5532 O   0  0  0  0  0  0
   -6.2783   -5.2177  -12.8608 C   0  0  0  0  0  0
   -7.4120   -6.2511  -12.7647 C   0  0  0  0  0  0
   -8.6150   -5.8887  -13.6450 C   0  0  0  0  0  0
   -8.2451   -4.8410  -14.6691 C   0  0  0  0  0  0
   -8.6773   -3.6935  -14.6522 O   0  0  0  0  0  0
   -7.3926   -5.2855  -15.6043 O   0  0  0  0  0  0
   -6.8073   -7.5848  -13.2248 C   0  0  0  0  0  0
   -6.9512   -8.6300  -12.6090 O   0  0  0  0  0  0
   -6.0635   -7.5006  -14.3363 O   0  0  0  0  0  0
   -6.2215   -5.1493   -6.8886 O   0  0  0  0  0  0
   -7.1921   -4.6038   -6.0649 C   0  0  0  0  0  0
   -8.1365   -3.9290   -6.4537 O   0  0  0  0  0  0
   -6.9584   -4.9390   -4.5859 C   0  0  0  0  0  0
   -5.8729   -4.0842   -3.8610 C   0  0  0  0  0  0
   -6.3459   -2.9535   -2.9292 C   0  0  0  0  0  0
   -5.2165   -2.2787   -2.2055 C   0  0  0  0  0  0
   -5.0485   -2.2717   -0.9938 O   0  0  0  0  0  0
   -4.3600   -1.6732   -3.0422 O   0  0  0  0  0  0
   -4.8291   -4.9006   -3.0888 C   0  0  0  0  0  0
   -5.1185   -5.8578   -2.3983 O   0  0  0  0  0  0
   -3.5436   -4.5538   -3.3090 O   0  0  0  0  0  0
  -15.9310    1.3975   -6.7015 H   0  0  0  0  0  0
  -14.8391    1.8359   -7.8134 H   0  0  0  0  0  0
  -15.8641   -0.2902   -8.9978 H   0  0  0  0  0  0
  -11.3764    1.1995  -10.5785 H   0  0  0  0  0  0
  -11.7318   -4.8756   -9.3492 H   0  0  0  0  0  0
   -6.7515   -5.9557  -15.2988 H   0  0  0  0  0  0
   -5.8758   -8.3693  -14.7709 H   0  0  0  0  0  0
   -3.8743   -1.0058   -2.5130 H   0  0  0  0  0  0
   -2.9193   -5.3049   -3.4193 H   0  0  0  0  0  0
  1  2  1  0  0  0
  2  3  1  0  0  0
  3  4  1  0  0  0
  4  5  1  0  0  0
  5  6  1  0  0  0
  5  7  1  0  0  0
  7  8  1  0  0  0
  7 39  1  0  0  0
  8  9  1  0  0  0
  8 27  1  0  0  0
  9 10  1  0  0  0
 10 11  1  0  0  0
 10 12  1  0  0  0
 12 13  1  0  0  0
 13 14  1  0  0  0
 13 26  1  0  0  0
 14 15  1  0  0  0
 15 16  1  0  0  0
 16 17  1  0  0  0
 17 18  1  0  0  0
 18 19  1  0  0  0
 18 25  1  0  0  0
 19 20  1  0  0  0
 20 21  1  0  0  0
 20 24  1  0  0  0
 21 22  1  0  0  0
 21 23  1  0  0  0
 23 51  1  0  0  0
 23 52  1  0  0  0
 24 53  1  0  0  0
 25 54  1  0  0  0
 26 55  1  0  0  0
 27 28  1  0  0  0
 28 29  2  0  0  0
 28 30  1  0  0  0
 30 31  1  0  0  0
 31 32  1  0  0  0
 31 36  1  0  0  0
 32 33  1  0  0  0
 33 34  2  0  0  0
 33 35  1  0  0  0
 35 56  1  0  0  0
 36 37  2  0  0  0
 36 38  1  0  0  0
 38 57  1  0  0  0
 39 40  1  0  0  0
 40 41  2  0  0  0
 40 42  1  0  0  0
 42 43  1  0  0  0
 43 44  1  0  0  0
 43 48  1  0  0  0
 44 45  1  0  0  0
 45 46  2  0  0  0
 45 47  1  0  0  0
 47 58  1  0  0  0
 48 49  2  0  0  0
 48 50  1  0  0  0
 50 59  1  0  0  0
M  END
>  <AUTHOR>
    GENERATED BY OPEN BABEL 2.4.1

>  <CHROM.1>
97.45135860,-67.06654940,-157.60998672,157.90924171,-175.78910273,112.11764492
89.17069729,132.46183796,164.05916848,-58.76910222,-165.06533803,0.24956326
-57.51721419,38.82275349,103.55245036,69.64258514,-69.41949985,-20.68911167
-67.24184961,177.04382210,-105.51635042,-65.38006152,111.61041350,-55.24357378
-72.78517887,154.76380390,16.09604250,132.43440014,-111.91137899,-32.81356135
-164.37198015,26.04938539,78.88369171,102.50561845,175.28965940,-42.92916126
-116.49862555,159.46950129,-137.20534204,-8.18518887,-3.55504446,-8.69072218
-2.43518675,-0.53522054,1.22062035

>  <COMPND>
    UNNAMED

>  <MASTER>
        0    0    0    0    0    0    0    0  109    0  109    0

>  <Name>
FB1.pdb

>  <RI>
0

>  <Rbt.Current_Directory>
/home/fc/tossine/FB1_39/p3/0_clust04

>  <Rbt.Executable>
rbdock/0.1.0

>  <Rbt.Library>
librxdock.so/0.1.0

>  <Rbt.Parameter_File>
/cluster/rxdock/data/scripts/dock.prm

>  <Rbt.Receptor>
rx_3.prm

>  <SCORE>
99.9094

>  <SCORE.INTER>
58.6774

>  <SCORE.INTER.CONST>
1

>  <SCORE.INTER.POLAR>
-1.08268

>  <SCORE.INTER.REPUL>
2.00232

>  <SCORE.INTER.ROT>
32

>  <SCORE.INTER.VDW>
14.9468

>  <SCORE.INTER.norm>
1.17355

>  <SCORE.INTRA>
36.0867

>  <SCORE.INTRA.DIHEDRAL>
65.3204

>  <SCORE.INTRA.DIHEDRAL.0>
47.3121

>  <SCORE.INTRA.POLAR>
0.478077

>  <SCORE.INTRA.POLAR.0>
-1.47808

>  <SCORE.INTRA.REPUL>
0

>  <SCORE.INTRA.REPUL.0>
0

>  <SCORE.INTRA.VDW>
1.80109

>  <SCORE.INTRA.VDW.0>
-2.78316

>  <SCORE.INTRA.norm>
0.721735

>  <SCORE.RESTR>
5.14533

>  <SCORE.RESTR.CAVITY>
5.14533

>  <SCORE.RESTR.norm>
0.102907

>  <SCORE.SYSTEM>
0

>  <SCORE.SYSTEM.CONST>
0

>  <SCORE.SYSTEM.DIHEDRAL>
0

>  <SCORE.SYSTEM.norm>
0

>  <SCORE.heavy>
50

>  <SCORE.norm>
1.99819

$$$$
