FB1.pdb
  RxDock  10062023013D
librxdock.so/0.1.0
 59 58  0  0  0  0  0  0  0  0999 V2000
   -6.3359   -5.9341  -12.2954 C   0  0  0  0  0  0
   -6.7700   -6.2540  -10.8669 C   0  0  0  0  0  0
   -6.0553   -5.3592   -9.8408 C   0  0  0  0  0  0
   -6.0385   -5.9524   -8.4098 C   0  0  0  0  0  0
   -7.3401   -5.6968   -7.5725 C   0  0  0  0  0  0
   -7.4449   -6.7962   -6.4904 C   0  0  0  0  0  0
   -7.4000   -4.2513   -6.9206 C   0  0  0  0  0  0
   -6.0251   -3.6509   -6.3591 C   0  0  0  0  0  0
   -5.7135   -2.1037   -6.1663 C   0  0  0  0  0  0
   -5.3463   -1.2862   -7.5513 C   0  0  0  0  0  0
   -5.7342    0.1799   -7.3665 C   0  0  0  0  0  0
   -3.8317   -1.3809   -8.0431 C   0  0  0  0  0  0
   -3.0023   -2.7649   -8.1663 C   0  0  0  0  0  0
   -1.4883   -2.8040   -8.5694 C   0  0  0  0  0  0
   -0.4966   -1.7524   -7.8914 C   0  0  0  0  0  0
    0.6431   -0.9794   -8.6647 C   0  0  0  0  0  0
    1.4500    0.1254   -7.9327 C   0  0  0  0  0  0
    2.7907   -0.3258   -7.2341 C   0  0  0  0  0  0
    3.8572    0.7602   -7.0450 C   0  0  0  0  0  0
    4.2387    1.6400   -8.2691 C   0  0  0  0  0  0
    5.2406    2.8220   -8.1127 C   0  0  0  0  0  0
    6.6049    2.4810   -7.5297 C   0  0  0  0  0  0
    5.3793    3.5646   -9.3798 N   0  0  0  0  0  0
    4.8793    0.7248   -9.1943 O   0  0  0  0  0  0
    2.4596   -0.8664   -5.9504 O   0  0  0  0  0  0
   -3.0558   -3.3461   -6.8525 O   0  0  0  0  0  0
   -5.8428   -4.2224   -5.0352 O   0  0  0  0  0  0
   -6.8015   -3.9551   -4.1106 C   0  0  0  0  0  0
   -7.8468   -4.5592   -3.9628 O   0  0  0  0  0  0
   -6.3112   -2.8436   -3.2242 C   0  0  0  0  0  0
   -6.8860   -2.9262   -1.8011 C   0  0  0  0  0  0
   -6.4792   -1.7296   -0.9316 C   0  0  0  0  0  0
   -4.9828   -1.6889   -0.7259 C   0  0  0  0  0  0
   -4.2421   -0.8905   -1.2895 O   0  0  0  0  0  0
   -4.5368   -2.6129    0.1379 O   0  0  0  0  0  0
   -8.4118   -2.9627   -1.9639 C   0  0  0  0  0  0
   -9.0517   -2.0475   -2.4593 O   0  0  0  0  0  0
   -8.9944   -4.0645   -1.4713 O   0  0  0  0  0  0
   -8.1022   -3.2925   -7.8080 O   0  0  0  0  0  0
   -9.4580   -3.0866   -7.6144 C   0  0  0  0  0  0
   -9.9344   -2.2943   -6.8122 O   0  0  0  0  0  0
  -10.3188   -3.9703   -8.5268 C   0  0  0  0  0  0
  -10.2607   -3.6316  -10.0488 C   0  0  0  0  0  0
  -11.3058   -2.6515  -10.6121 C   0  0  0  0  0  0
  -11.4381   -1.4002   -9.7929 C   0  0  0  0  0  0
  -11.4482   -1.3452   -8.5708 O   0  0  0  0  0  0
  -11.5296   -0.2973  -10.5516 O   0  0  0  0  0  0
   -8.8871   -3.1641  -10.5459 C   0  0  0  0  0  0
   -8.2440   -3.7727  -11.3782 O   0  0  0  0  0  0
   -8.4780   -1.9667  -10.0769 O   0  0  0  0  0  0
    6.1432    4.2336   -9.2931 H   0  0  0  0  0  0
    4.5427    4.1364   -9.5165 H   0  0  0  0  0  0
    4.1369    0.2832   -9.6582 H   0  0  0  0  0  0
    2.1777   -0.1320   -5.3745 H   0  0  0  0  0  0
   -2.5845   -2.7543   -6.2425 H   0  0  0  0  0  0
   -5.2276   -3.1689    0.5468 H   0  0  0  0  0  0
   -9.9315   -4.1965   -1.7595 H   0  0  0  0  0  0
  -11.4550   -0.5905  -11.4842 H   0  0  0  0  0  0
   -9.0146   -1.5989   -9.3400 H   0  0  0  0  0  0
  1  2  1  0  0  0
  2  3  1  0  0  0
  3  4  1  0  0  0
  4  5  1  0  0  0
  5  6  1  0  0  0
  5  7  1  0  0  0
  7  8  1  0  0  0
  7 39  1  0  0  0
  8  9  1  0  0  0
  8 27  1  0  0  0
  9 10  1  0  0  0
 10 11  1  0  0  0
 10 12  1  0  0  0
 12 13  1  0  0  0
 13 14  1  0  0  0
 13 26  1  0  0  0
 14 15  1  0  0  0
 15 16  1  0  0  0
 16 17  1  0  0  0
 17 18  1  0  0  0
 18 19  1  0  0  0
 18 25  1  0  0  0
 19 20  1  0  0  0
 20 21  1  0  0  0
 20 24  1  0  0  0
 21 22  1  0  0  0
 21 23  1  0  0  0
 23 51  1  0  0  0
 23 52  1  0  0  0
 24 53  1  0  0  0
 25 54  1  0  0  0
 26 55  1  0  0  0
 27 28  1  0  0  0
 28 29  2  0  0  0
 28 30  1  0  0  0
 30 31  1  0  0  0
 31 32  1  0  0  0
 31 36  1  0  0  0
 32 33  1  0  0  0
 33 34  2  0  0  0
 33 35  1  0  0  0
 35 56  1  0  0  0
 36 37  2  0  0  0
 36 38  1  0  0  0
 38 57  1  0  0  0
 39 40  1  0  0  0
 40 41  2  0  0  0
 40 42  1  0  0  0
 42 43  1  0  0  0
 43 44  1  0  0  0
 43 48  1  0  0  0
 44 45  1  0  0  0
 45 46  2  0  0  0
 45 47  1  0  0  0
 47 58  1  0  0  0
 48 49  2  0  0  0
 48 50  1  0  0  0
 50 59  1  0  0  0
M  END
>  <AUTHOR>
    GENERATED BY OPEN BABEL 2.4.1

>  <CHROM.1>
-158.70341111,-82.89825120,155.86132393,-37.93081790,156.40084375,94.05709738
-77.40139082,-60.57114907,152.83364785,48.44025162,-176.13242025,44.33161916
-64.23261978,-138.36657712,173.76419225,92.65317951,154.84117257,-49.56518699
-70.89063886,175.68880204,55.71656212,81.90653792,-171.12595239,84.37446627
-150.45657714,-175.23561442,-63.50829547,-62.67061568,105.53032080,-2.11638143
-166.10037013,85.23504133,-68.46677536,-92.00963859,48.52736855,117.55609853
-41.59762478,-1.89401668,11.17948484,-4.86533653,-2.26784632,-6.94475753
3.10615111,0.32712103,1.56868949

>  <COMPND>
    UNNAMED

>  <MASTER>
        0    0    0    0    0    0    0    0  109    0  109    0

>  <Name>
FB1.pdb

>  <RI>
0

>  <Rbt.Current_Directory>
/home/fc/tossine/FB1_39/p3/0_clust04

>  <Rbt.Executable>
rbdock/0.1.0

>  <Rbt.Library>
librxdock.so/0.1.0

>  <Rbt.Parameter_File>
/cluster/rxdock/data/scripts/dock.prm

>  <Rbt.Receptor>
rx_4.prm

>  <SCORE>
59.3567

>  <SCORE.INTER>
26.0407

>  <SCORE.INTER.CONST>
1

>  <SCORE.INTER.POLAR>
-3.45577

>  <SCORE.INTER.REPUL>
0.169073

>  <SCORE.INTER.ROT>
32

>  <SCORE.INTER.VDW>
-0.455068

>  <SCORE.INTER.norm>
0.520813

>  <SCORE.INTRA>
29.153

>  <SCORE.INTRA.DIHEDRAL>
50.4031

>  <SCORE.INTRA.DIHEDRAL.0>
47.3121

>  <SCORE.INTRA.POLAR>
1.47808

>  <SCORE.INTRA.POLAR.0>
-1.47808

>  <SCORE.INTRA.REPUL>
0

>  <SCORE.INTRA.REPUL.0>
0

>  <SCORE.INTRA.VDW>
-1.07404

>  <SCORE.INTRA.VDW.0>
-2.78316

>  <SCORE.INTRA.norm>
0.58306

>  <SCORE.RESTR>
4.16304

>  <SCORE.RESTR.CAVITY>
4.16304

>  <SCORE.RESTR.norm>
0.0832608

>  <SCORE.SYSTEM>
0

>  <SCORE.SYSTEM.CONST>
0

>  <SCORE.SYSTEM.DIHEDRAL>
0

>  <SCORE.SYSTEM.norm>
0

>  <SCORE.heavy>
50

>  <SCORE.norm>
1.18713

$$$$
