FB1.pdb
  RxDock  10062022253D
librxdock.so/0.1.0
 59 58  0  0  0  0  0  0  0  0999 V2000
   -9.5651   -8.8672  -12.7343 C   0  0  0  0  0  0
  -10.4135   -8.0817  -11.7371 C   0  0  0  0  0  0
  -11.2238   -6.9727  -12.4282 C   0  0  0  0  0  0
  -12.2720   -6.3057  -11.5029 C   0  0  0  0  0  0
  -11.7154   -5.1543  -10.5947 C   0  0  0  0  0  0
  -11.5897   -5.6927   -9.1508 C   0  0  0  0  0  0
  -10.3339   -4.5601  -11.1011 C   0  0  0  0  0  0
   -9.6249   -3.4717  -10.1636 C   0  0  0  0  0  0
  -10.3777   -2.3157   -9.3729 C   0  0  0  0  0  0
  -11.1323   -1.1963  -10.3210 C   0  0  0  0  0  0
  -11.4324   -1.8326  -11.6772 C   0  0  0  0  0  0
  -12.4651   -0.5537   -9.7249 C   0  0  0  0  0  0
  -12.8566   -0.5690   -8.1549 C   0  0  0  0  0  0
  -11.7982   -0.3358   -7.0228 C   0  0  0  0  0  0
  -12.2159   -0.6617   -5.5167 C   0  0  0  0  0  0
  -12.0161    0.3309   -4.3045 C   0  0  0  0  0  0
  -10.5821    0.7603   -3.8963 C   0  0  0  0  0  0
  -10.4385    1.5260   -2.5243 C   0  0  0  0  0  0
   -9.4880    2.7297   -2.5143 C   0  0  0  0  0  0
   -9.2684    3.4847   -1.1726 C   0  0  0  0  0  0
   -8.9502    2.6997    0.1342 C   0  0  0  0  0  0
   -8.4144    1.2853   -0.0385 C   0  0  0  0  0  0
   -8.0764    3.4898    1.0223 N   0  0  0  0  0  0
   -8.1024    4.3156   -1.4049 O   0  0  0  0  0  0
  -11.7404    1.9713   -2.1286 O   0  0  0  0  0  0
  -13.8107    0.4953   -8.0015 O   0  0  0  0  0  0
   -8.9264   -4.2183   -9.1307 O   0  0  0  0  0  0
   -8.1521   -3.5059   -8.2714 C   0  0  0  0  0  0
   -8.0482   -2.2947   -8.2319 O   0  0  0  0  0  0
   -7.5149   -4.4616   -7.3008 C   0  0  0  0  0  0
   -5.9851   -4.3212   -7.2522 C   0  0  0  0  0  0
   -5.5294   -2.8569   -7.2109 C   0  0  0  0  0  0
   -5.8205   -2.2331   -5.8658 C   0  0  0  0  0  0
   -6.7758   -1.4943   -5.6532 O   0  0  0  0  0  0
   -4.9314   -2.5665   -4.9185 O   0  0  0  0  0  0
   -5.5351   -5.0475   -5.9770 C   0  0  0  0  0  0
   -6.2123   -5.0930   -4.9612 O   0  0  0  0  0  0
   -4.3115   -5.5888   -6.0514 O   0  0  0  0  0  0
   -9.3999   -5.6412  -11.4994 O   0  0  0  0  0  0
   -8.3227   -5.3171  -12.3072 C   0  0  0  0  0  0
   -8.0862   -4.1950  -12.7356 O   0  0  0  0  0  0
   -7.4379   -6.5321  -12.6159 C   0  0  0  0  0  0
   -6.0163   -6.5156  -11.9732 C   0  0  0  0  0  0
   -5.8305   -5.7550  -10.6475 C   0  0  0  0  0  0
   -4.4377   -5.2245  -10.4658 C   0  0  0  0  0  0
   -3.5239   -5.3277  -11.2726 O   0  0  0  0  0  0
   -4.2812   -4.5830   -9.2977 O   0  0  0  0  0  0
   -5.3815   -7.9002  -11.7937 C   0  0  0  0  0  0
   -4.3242   -8.2131  -12.3045 O   0  0  0  0  0  0
   -6.0217   -8.7246  -10.9383 O   0  0  0  0  0  0
   -7.8437    2.9331    1.8436 H   0  0  0  0  0  0
   -8.6102    4.2831    1.3844 H   0  0  0  0  0  0
   -7.4047    3.6878   -1.6884 H   0  0  0  0  0  0
  -12.2490    1.1956   -1.8284 H   0  0  0  0  0  0
  -13.9283    0.6591   -7.0508 H   0  0  0  0  0  0
   -5.1752   -2.3083   -4.0089 H   0  0  0  0  0  0
   -3.8344   -5.4089   -6.8992 H   0  0  0  0  0  0
   -3.4021   -4.8428   -8.9497 H   0  0  0  0  0  0
   -6.9201   -9.0067  -11.2204 H   0  0  0  0  0  0
  1  2  1  0  0  0
  2  3  1  0  0  0
  3  4  1  0  0  0
  4  5  1  0  0  0
  5  6  1  0  0  0
  5  7  1  0  0  0
  7  8  1  0  0  0
  7 39  1  0  0  0
  8  9  1  0  0  0
  8 27  1  0  0  0
  9 10  1  0  0  0
 10 11  1  0  0  0
 10 12  1  0  0  0
 12 13  1  0  0  0
 13 14  1  0  0  0
 13 26  1  0  0  0
 14 15  1  0  0  0
 15 16  1  0  0  0
 16 17  1  0  0  0
 17 18  1  0  0  0
 18 19  1  0  0  0
 18 25  1  0  0  0
 19 20  1  0  0  0
 20 21  1  0  0  0
 20 24  1  0  0  0
 21 22  1  0  0  0
 21 23  1  0  0  0
 23 51  1  0  0  0
 23 52  1  0  0  0
 24 53  1  0  0  0
 25 54  1  0  0  0
 26 55  1  0  0  0
 27 28  1  0  0  0
 28 29  2  0  0  0
 28 30  1  0  0  0
 30 31  1  0  0  0
 31 32  1  0  0  0
 31 36  1  0  0  0
 32 33  1  0  0  0
 33 34  2  0  0  0
 33 35  1  0  0  0
 35 56  1  0  0  0
 36 37  2  0  0  0
 36 38  1  0  0  0
 38 57  1  0  0  0
 39 40  1  0  0  0
 40 41  2  0  0  0
 40 42  1  0  0  0
 42 43  1  0  0  0
 43 44  1  0  0  0
 43 48  1  0  0  0
 44 45  1  0  0  0
 45 46  2  0  0  0
 45 47  1  0  0  0
 47 58  1  0  0  0
 48 49  2  0  0  0
 48 50  1  0  0  0
 50 59  1  0  0  0
M  END
>  <AUTHOR>
    GENERATED BY OPEN BABEL 2.4.1

>  <CHROM.1>
170.40166163,84.06417343,-104.83944185,-174.63849818,-39.90220521,161.79615229
-64.25215051,174.71421722,23.78904182,19.47808000,40.03865789,-167.74041316
-167.53097222,-129.86191841,-62.92735317,-168.82736814,-137.75187500,-177.64286668
73.14155305,48.30479780,19.86287651,-55.99867861,-176.92525624,4.69826733
125.91016296,44.25191891,72.12907511,-32.57504151,-101.04166715,-169.83962021
3.22650004,-0.83212161,-111.53236788,28.50739165,-151.67011451,120.80502300
1.94749712,139.32900505,65.69951389,-8.58033429,-3.00248432,-7.83969494,1.40044063
0.37841573,-2.24689900

>  <COMPND>
    UNNAMED

>  <MASTER>
        0    0    0    0    0    0    0    0  109    0  109    0

>  <Name>
FB1.pdb

>  <RI>
0

>  <Rbt.Current_Directory>
/home/fc/tossine/FB1_39/p3/0_clust04

>  <Rbt.Executable>
rbdock/0.1.0

>  <Rbt.Library>
librxdock.so/0.1.0

>  <Rbt.Parameter_File>
/cluster/rxdock/data/scripts/dock.prm

>  <Rbt.Receptor>
rx_3.prm

>  <SCORE>
112.073

>  <SCORE.INTER>
64.1982

>  <SCORE.INTER.CONST>
1

>  <SCORE.INTER.POLAR>
-0.775885

>  <SCORE.INTER.REPUL>
2.32759

>  <SCORE.INTER.ROT>
32

>  <SCORE.INTER.VDW>
17.7983

>  <SCORE.INTER.norm>
1.28396

>  <SCORE.INTRA>
38.3033

>  <SCORE.INTRA.DIHEDRAL>
41.0869

>  <SCORE.INTRA.DIHEDRAL.0>
47.3121

>  <SCORE.INTRA.POLAR>
1.47808

>  <SCORE.INTRA.POLAR.0>
-1.47808

>  <SCORE.INTRA.REPUL>
0

>  <SCORE.INTRA.REPUL.0>
0

>  <SCORE.INTRA.VDW>
12.7344

>  <SCORE.INTRA.VDW.0>
-2.78316

>  <SCORE.INTRA.norm>
0.766065

>  <SCORE.RESTR>
9.57158

>  <SCORE.RESTR.CAVITY>
9.57158

>  <SCORE.RESTR.norm>
0.191432

>  <SCORE.SYSTEM>
0

>  <SCORE.SYSTEM.CONST>
0

>  <SCORE.SYSTEM.DIHEDRAL>
0

>  <SCORE.SYSTEM.norm>
0

>  <SCORE.heavy>
50

>  <SCORE.norm>
2.24146

$$$$
