FB1.pdb
  RxDock  10072012073D
librxdock.so/0.1.0
 59 58  0  0  0  0  0  0  0  0999 V2000
   -6.3816  -13.4609    4.3127 C   0  0  0  0  0  0
   -6.8268  -12.0728    4.7667 C   0  0  0  0  0  0
   -6.1879  -11.6806    6.1092 C   0  0  0  0  0  0
   -4.6744  -11.3676    6.0048 C   0  0  0  0  0  0
   -4.1553  -11.0889    4.5511 C   0  0  0  0  0  0
   -4.9438   -9.8899    3.9754 C   0  0  0  0  0  0
   -2.5918  -10.8283    4.4761 C   0  0  0  0  0  0
   -2.0417  -10.0861    3.1674 C   0  0  0  0  0  0
   -2.4040   -8.5983    2.7389 C   0  0  0  0  0  0
   -2.1372   -8.2434    1.1502 C   0  0  0  0  0  0
   -2.4305   -9.4909    0.3185 C   0  0  0  0  0  0
   -2.9503   -7.0041    0.5605 C   0  0  0  0  0  0
   -4.4139   -6.5490    1.0796 C   0  0  0  0  0  0
   -5.1417   -5.2747    0.5295 C   0  0  0  0  0  0
   -5.6116   -5.2704   -0.9964 C   0  0  0  0  0  0
   -5.6068   -3.9922   -1.9241 C   0  0  0  0  0  0
   -6.6438   -3.8770   -3.0725 C   0  0  0  0  0  0
   -6.4610   -2.6680   -4.0696 C   0  0  0  0  0  0
   -5.5622   -2.9209   -5.2864 C   0  0  0  0  0  0
   -5.4786   -1.8211   -6.3826 C   0  0  0  0  0  0
   -6.3719   -1.9032   -7.6557 C   0  0  0  0  0  0
   -6.2420   -3.1670   -8.4942 C   0  0  0  0  0  0
   -7.7840   -1.6325   -7.3251 N   0  0  0  0  0  0
   -5.8906   -0.6024   -5.7128 O   0  0  0  0  0  0
   -7.7579   -2.2794   -4.5351 O   0  0  0  0  0  0
   -5.2807   -7.6476    0.7507 O   0  0  0  0  0  0
   -0.5926  -10.0854    3.2795 O   0  0  0  0  0  0
    0.0889  -10.9386    2.4715 C   0  0  0  0  0  0
   -0.2470  -11.2992    1.3595 O   0  0  0  0  0  0
    1.3895  -11.2902    3.1395 C   0  0  0  0  0  0
    1.8530  -10.2128    4.1330 C   0  0  0  0  0  0
    1.3164  -10.4494    5.5505 C   0  0  0  0  0  0
    1.4641  -11.8979    5.9547 C   0  0  0  0  0  0
    0.5640  -12.7248    5.8559 O   0  0  0  0  0  0
    2.6806  -12.1977    6.4332 O   0  0  0  0  0  0
    3.3867  -10.2728    4.1352 C   0  0  0  0  0  0
    4.0425  -10.5348    5.1320 O   0  0  0  0  0  0
    3.9539   -9.9647    2.9607 O   0  0  0  0  0  0
   -2.0939  -10.1966    5.7222 O   0  0  0  0  0  0
   -2.0165  -10.9706    6.8681 C   0  0  0  0  0  0
   -1.7675  -12.1689    6.8835 O   0  0  0  0  0  0
   -2.2794  -10.1561    8.1416 C   0  0  0  0  0  0
   -1.1810   -9.1136    8.5177 C   0  0  0  0  0  0
   -0.5353   -8.3010    7.3805 C   0  0  0  0  0  0
   -1.5309   -7.8203    6.3645 C   0  0  0  0  0  0
   -1.3003   -7.6163    5.1806 O   0  0  0  0  0  0
   -2.7538   -7.6442    6.8878 O   0  0  0  0  0  0
   -1.5941   -8.1174    9.6082 C   0  0  0  0  0  0
   -0.7970   -7.4113   10.1937 O   0  0  0  0  0  0
   -2.9232   -7.9938    9.8067 O   0  0  0  0  0  0
   -8.3448   -2.4501   -7.5606 H   0  0  0  0  0  0
   -8.1273   -0.8915   -7.9404 H   0  0  0  0  0  0
   -5.0598   -0.2253   -5.3537 H   0  0  0  0  0  0
   -7.6411   -1.6629   -5.2813 H   0  0  0  0  0  0
   -6.0944   -7.5557    1.2742 H   0  0  0  0  0  0
    3.3372  -11.4767    6.3835 H   0  0  0  0  0  0
    3.3123   -9.8069    2.2244 H   0  0  0  0  0  0
   -3.2828   -7.1688    6.2129 H   0  0  0  0  0  0
   -3.1895   -7.2896   10.4387 H   0  0  0  0  0  0
  1  2  1  0  0  0
  2  3  1  0  0  0
  3  4  1  0  0  0
  4  5  1  0  0  0
  5  6  1  0  0  0
  5  7  1  0  0  0
  7  8  1  0  0  0
  7 39  1  0  0  0
  8  9  1  0  0  0
  8 27  1  0  0  0
  9 10  1  0  0  0
 10 11  1  0  0  0
 10 12  1  0  0  0
 12 13  1  0  0  0
 13 14  1  0  0  0
 13 26  1  0  0  0
 14 15  1  0  0  0
 15 16  1  0  0  0
 16 17  1  0  0  0
 17 18  1  0  0  0
 18 19  1  0  0  0
 18 25  1  0  0  0
 19 20  1  0  0  0
 20 21  1  0  0  0
 20 24  1  0  0  0
 21 22  1  0  0  0
 21 23  1  0  0  0
 23 51  1  0  0  0
 23 52  1  0  0  0
 24 53  1  0  0  0
 25 54  1  0  0  0
 26 55  1  0  0  0
 27 28  1  0  0  0
 28 29  2  0  0  0
 28 30  1  0  0  0
 30 31  1  0  0  0
 31 32  1  0  0  0
 31 36  1  0  0  0
 32 33  1  0  0  0
 33 34  2  0  0  0
 33 35  1  0  0  0
 35 56  1  0  0  0
 36 37  2  0  0  0
 36 38  1  0  0  0
 38 57  1  0  0  0
 39 40  1  0  0  0
 40 41  2  0  0  0
 40 42  1  0  0  0
 42 43  1  0  0  0
 43 44  1  0  0  0
 43 48  1  0  0  0
 44 45  1  0  0  0
 45 46  2  0  0  0
 45 47  1  0  0  0
 47 58  1  0  0  0
 48 49  2  0  0  0
 48 50  1  0  0  0
 50 59  1  0  0  0
M  END
>  <AUTHOR>
    GENERATED BY OPEN BABEL 2.4.1

>  <CHROM.1>
71.60221466,17.17535744,58.56696572,-160.86968334,64.06626135,72.43098864
-160.46169691,106.30965660,34.44219832,-30.24804268,176.35213938,66.70070840
162.62703829,-144.96275431,-150.64629624,-172.33904963,88.94257718,173.10009883
-168.58831559,-96.06576584,-56.96770857,89.72655069,-119.15421492,31.19229185
-24.81419496,89.77273945,45.09912540,-118.87078340,-96.41627591,-5.50837560
-4.54273198,32.67774624,-68.90927378,40.05847309,42.45996300,165.79529578
-151.01240154,169.04453837,-173.95294996,-2.66664023,-8.22686756,2.59959200
1.16146793,-0.25470695,2.04759074

>  <COMPND>
    UNNAMED

>  <MASTER>
        0    0    0    0    0    0    0    0  109    0  109    0

>  <Name>
FB1.pdb

>  <RI>
0

>  <Rbt.Current_Directory>
/cluster/tossine/F10/p3/0_clust01/stat

>  <Rbt.Executable>
rbdock/0.1.0

>  <Rbt.Library>
librxdock.so/0.1.0

>  <Rbt.Parameter_File>
/cluster/rxdock/data/scripts/dock.prm

>  <Rbt.Receptor>
rx_3.prm

>  <SCORE>
26.5805

>  <SCORE.INTER>
0.875904

>  <SCORE.INTER.CONST>
1

>  <SCORE.INTER.POLAR>
-2.61947

>  <SCORE.INTER.REPUL>
0.58852

>  <SCORE.INTER.ROT>
32

>  <SCORE.INTER.VDW>
-30.5605

>  <SCORE.INTER.norm>
0.0175181

>  <SCORE.INTRA>
20.2829

>  <SCORE.INTRA.DIHEDRAL>
26.5772

>  <SCORE.INTRA.DIHEDRAL.0>
47.3121

>  <SCORE.INTRA.POLAR>
-0.45399

>  <SCORE.INTRA.POLAR.0>
-1.47808

>  <SCORE.INTRA.REPUL>
0

>  <SCORE.INTRA.REPUL.0>
0

>  <SCORE.INTRA.VDW>
8.53788

>  <SCORE.INTRA.VDW.0>
-2.78316

>  <SCORE.INTRA.norm>
0.405658

>  <SCORE.RESTR>
5.42175

>  <SCORE.RESTR.CAVITY>
5.42175

>  <SCORE.RESTR.norm>
0.108435

>  <SCORE.SYSTEM>
0

>  <SCORE.SYSTEM.CONST>
0

>  <SCORE.SYSTEM.DIHEDRAL>
0

>  <SCORE.SYSTEM.norm>
0

>  <SCORE.heavy>
50

>  <SCORE.norm>
0.531611

$$$$
