FB1.pdb
  RxDock  10072012043D
librxdock.so/0.1.0
 59 58  0  0  0  0  0  0  0  0999 V2000
    4.9993  -12.0336    4.4308 C   0  0  0  0  0  0
    4.5184  -13.4385    4.0755 C   0  0  0  0  0  0
    3.0515  -13.6578    4.4811 C   0  0  0  0  0  0
    2.0448  -12.8666    3.6092 C   0  0  0  0  0  0
    1.5282  -11.5286    4.2444 C   0  0  0  0  0  0
    2.4815  -10.3886    3.8174 C   0  0  0  0  0  0
    0.0266  -11.1852    3.8636 C   0  0  0  0  0  0
   -0.3963  -11.3808    2.3309 C   0  0  0  0  0  0
   -1.7721  -10.9027    1.6931 C   0  0  0  0  0  0
   -1.9967   -9.2688    1.6586 C   0  0  0  0  0  0
   -1.6101   -8.7552    0.2727 C   0  0  0  0  0  0
   -3.4591   -8.7521    2.0318 C   0  0  0  0  0  0
   -3.9091   -7.1981    1.9965 C   0  0  0  0  0  0
   -5.2666   -6.7306    1.3681 C   0  0  0  0  0  0
   -5.3277   -5.2895    0.6835 C   0  0  0  0  0  0
   -6.4981   -4.8020   -0.2583 C   0  0  0  0  0  0
   -6.6358   -5.4048   -1.6814 C   0  0  0  0  0  0
   -5.2951   -5.8014   -2.4124 C   0  0  0  0  0  0
   -5.4367   -6.3697   -3.8299 C   0  0  0  0  0  0
   -4.3030   -6.0842   -4.8554 C   0  0  0  0  0  0
   -4.2608   -6.8366   -6.2183 C   0  0  0  0  0  0
   -3.9994   -8.3350   -6.1572 C   0  0  0  0  0  0
   -5.4656   -6.5437   -7.0178 N   0  0  0  0  0  0
   -4.4659   -4.6856   -5.2035 O   0  0  0  0  0  0
   -4.4626   -4.6381   -2.4698 O   0  0  0  0  0  0
   -3.9785   -6.8021    3.3767 O   0  0  0  0  0  0
    0.6202  -10.7076    1.5398 O   0  0  0  0  0  0
    0.5869  -10.9044    0.1961 C   0  0  0  0  0  0
   -0.2914  -11.4704   -0.4264 O   0  0  0  0  0  0
    1.7743  -10.2136   -0.4157 C   0  0  0  0  0  0
    2.5249  -11.1059   -1.4172 C   0  0  0  0  0  0
    1.8861  -11.0918   -2.8119 C   0  0  0  0  0  0
    2.5261  -10.0452   -3.6941 C   0  0  0  0  0  0
    2.9597   -8.9776   -3.2747 O   0  0  0  0  0  0
    2.5780  -10.3958   -4.9876 O   0  0  0  0  0  0
    3.9540  -10.5504   -1.4884 C   0  0  0  0  0  0
    4.6420  -10.6068   -2.4963 O   0  0  0  0  0  0
    4.4069  -10.0397   -0.3352 O   0  0  0  0  0  0
   -0.9252  -11.8457    4.7898 O   0  0  0  0  0  0
   -0.5448  -12.0229    6.1096 C   0  0  0  0  0  0
    0.5837  -12.3258    6.4744 O   0  0  0  0  0  0
   -1.7054  -11.7956    7.0873 C   0  0  0  0  0  0
   -1.7152  -10.4172    7.8183 C   0  0  0  0  0  0
   -2.2484   -9.1945    7.0494 C   0  0  0  0  0  0
   -1.6469   -9.0540    5.6809 C   0  0  0  0  0  0
   -2.2224   -9.2689    4.6230 O   0  0  0  0  0  0
   -0.3725   -8.6360    5.7210 O   0  0  0  0  0  0
   -2.4047  -10.4268    9.1882 C   0  0  0  0  0  0
   -2.0376   -9.7346   10.1170 O   0  0  0  0  0  0
   -3.5217  -11.1798    9.2694 O   0  0  0  0  0  0
   -5.1834   -6.2495   -7.9518 H   0  0  0  0  0  0
   -5.9345   -5.7290   -6.6155 H   0  0  0  0  0  0
   -3.6431   -4.4534   -5.6836 H   0  0  0  0  0  0
   -3.5605   -4.9211   -2.7081 H   0  0  0  0  0  0
   -4.2893   -5.8819    3.4102 H   0  0  0  0  0  0
    3.0473   -9.7688   -5.5707 H   0  0  0  0  0  0
    5.3050   -9.6287   -0.3934 H   0  0  0  0  0  0
   -0.1035   -8.6434    6.6638 H   0  0  0  0  0  0
   -4.0155  -11.1081   10.1162 H   0  0  0  0  0  0
  1  2  1  0  0  0
  2  3  1  0  0  0
  3  4  1  0  0  0
  4  5  1  0  0  0
  5  6  1  0  0  0
  5  7  1  0  0  0
  7  8  1  0  0  0
  7 39  1  0  0  0
  8  9  1  0  0  0
  8 27  1  0  0  0
  9 10  1  0  0  0
 10 11  1  0  0  0
 10 12  1  0  0  0
 12 13  1  0  0  0
 13 14  1  0  0  0
 13 26  1  0  0  0
 14 15  1  0  0  0
 15 16  1  0  0  0
 16 17  1  0  0  0
 17 18  1  0  0  0
 18 19  1  0  0  0
 18 25  1  0  0  0
 19 20  1  0  0  0
 20 21  1  0  0  0
 20 24  1  0  0  0
 21 22  1  0  0  0
 21 23  1  0  0  0
 23 51  1  0  0  0
 23 52  1  0  0  0
 24 53  1  0  0  0
 25 54  1  0  0  0
 26 55  1  0  0  0
 27 28  1  0  0  0
 28 29  2  0  0  0
 28 30  1  0  0  0
 30 31  1  0  0  0
 31 32  1  0  0  0
 31 36  1  0  0  0
 32 33  1  0  0  0
 33 34  2  0  0  0
 33 35  1  0  0  0
 35 56  1  0  0  0
 36 37  2  0  0  0
 36 38  1  0  0  0
 38 57  1  0  0  0
 39 40  1  0  0  0
 40 41  2  0  0  0
 40 42  1  0  0  0
 42 43  1  0  0  0
 43 44  1  0  0  0
 43 48  1  0  0  0
 44 45  1  0  0  0
 45 46  2  0  0  0
 45 47  1  0  0  0
 47 58  1  0  0  0
 48 49  2  0  0  0
 48 50  1  0  0  0
 50 59  1  0  0  0
M  END
>  <AUTHOR>
    GENERATED BY OPEN BABEL 2.4.1

>  <CHROM.1>
70.67213934,-99.08057514,89.92865548,-44.25794219,-170.69027974,32.97020071
65.34148374,170.46293885,97.44984798,-177.21178294,135.23096565,-148.33037417
-177.24886543,165.99912236,-71.24522007,-33.18258065,-178.78146037,147.92266859
165.81425766,169.01034185,-66.45014834,167.58211273,128.81558877,8.45934041
132.79821612,83.12419589,93.11406518,-148.84693717,-33.26425458,-175.53979954
-176.24443202,-38.51102610,-101.52952533,79.67898027,-49.25294324,146.07920044
107.70721449,7.78583396,-173.63485239,-1.00364651,-9.39705147,1.33409556
-1.18868918,0.52058913,-1.34182076

>  <COMPND>
    UNNAMED

>  <MASTER>
        0    0    0    0    0    0    0    0  109    0  109    0

>  <Name>
FB1.pdb

>  <RI>
0

>  <Rbt.Current_Directory>
/cluster/tossine/F10/p3/0_clust01/stat

>  <Rbt.Executable>
rbdock/0.1.0

>  <Rbt.Library>
librxdock.so/0.1.0

>  <Rbt.Parameter_File>
/cluster/rxdock/data/scripts/dock.prm

>  <Rbt.Receptor>
rx_3.prm

>  <SCORE>
52.2095

>  <SCORE.INTER>
23.7139

>  <SCORE.INTER.CONST>
1

>  <SCORE.INTER.POLAR>
-2.70758

>  <SCORE.INTER.REPUL>
1.21196

>  <SCORE.INTER.ROT>
32

>  <SCORE.INTER.VDW>
-10.5401

>  <SCORE.INTER.norm>
0.474278

>  <SCORE.INTRA>
23.7751

>  <SCORE.INTRA.DIHEDRAL>
20.6646

>  <SCORE.INTRA.DIHEDRAL.0>
47.3121

>  <SCORE.INTRA.POLAR>
1.45169

>  <SCORE.INTRA.POLAR.0>
-1.47808

>  <SCORE.INTRA.REPUL>
0.00936368

>  <SCORE.INTRA.REPUL.0>
0

>  <SCORE.INTRA.VDW>
8.46028

>  <SCORE.INTRA.VDW.0>
-2.78316

>  <SCORE.INTRA.norm>
0.475503

>  <SCORE.RESTR>
4.72041

>  <SCORE.RESTR.CAVITY>
4.72041

>  <SCORE.RESTR.norm>
0.0944082

>  <SCORE.SYSTEM>
0

>  <SCORE.SYSTEM.CONST>
0

>  <SCORE.SYSTEM.DIHEDRAL>
0

>  <SCORE.SYSTEM.norm>
0

>  <SCORE.heavy>
50

>  <SCORE.norm>
1.04419

$$$$
