FB1.pdb
  RxDock  10072011573D
librxdock.so/0.1.0
 59 58  0  0  0  0  0  0  0  0999 V2000
    1.6503  -11.6562    5.6018 C   0  0  0  0  0  0
    2.4765  -11.0909    4.4489 C   0  0  0  0  0  0
    2.5443  -12.0686    3.2641 C   0  0  0  0  0  0
    3.4999  -11.6064    2.1359 C   0  0  0  0  0  0
    3.0885  -10.2691    1.4269 C   0  0  0  0  0  0
    4.2936   -9.7685    0.5975 C   0  0  0  0  0  0
    1.7933  -10.4054    0.5204 C   0  0  0  0  0  0
    2.0156  -10.8619   -0.9990 C   0  0  0  0  0  0
    2.9226  -12.0820   -1.4644 C   0  0  0  0  0  0
    3.6120  -11.9130   -2.9535 C   0  0  0  0  0  0
    2.5001  -11.7272   -3.9846 C   0  0  0  0  0  0
    4.6822  -10.7396   -3.1037 C   0  0  0  0  0  0
    4.3333   -9.2576   -3.6520 C   0  0  0  0  0  0
    4.2960   -8.9145   -5.1807 C   0  0  0  0  0  0
    4.5154   -7.3958   -5.6216 C   0  0  0  0  0  0
    4.5622   -6.9038   -7.1218 C   0  0  0  0  0  0
    4.9245   -5.4272   -7.4312 C   0  0  0  0  0  0
    4.2009   -4.7676   -8.6684 C   0  0  0  0  0  0
    4.3599   -5.4892  -10.0125 C   0  0  0  0  0  0
    3.7799   -6.9253  -10.1515 C   0  0  0  0  0  0
    2.2436   -7.1691  -10.0767 C   0  0  0  0  0  0
    1.3767   -6.3141  -10.9905 C   0  0  0  0  0  0
    1.9301   -8.6013  -10.2409 N   0  0  0  0  0  0
    4.1628   -7.3489  -11.4848 O   0  0  0  0  0  0
    2.8049   -4.6736   -8.3650 O   0  0  0  0  0  0
    3.0036   -8.9907   -3.1750 O   0  0  0  0  0  0
    0.6974  -11.1713   -1.5273 O   0  0  0  0  0  0
   -0.2802  -10.2502   -1.3246 C   0  0  0  0  0  0
   -0.2378   -9.3151   -0.5479 O   0  0  0  0  0  0
   -1.3947  -10.5168   -2.2984 C   0  0  0  0  0  0
   -1.2152   -9.7582   -3.6231 C   0  0  0  0  0  0
   -0.2103  -10.4401   -4.5605 C   0  0  0  0  0  0
    0.1208   -9.5563   -5.7405 C   0  0  0  0  0  0
    1.2133   -9.0238   -5.9038 O   0  0  0  0  0  0
   -0.8981   -9.4086   -6.6001 O   0  0  0  0  0  0
   -2.6026   -9.7201   -4.2787 C   0  0  0  0  0  0
   -3.2608   -8.6967   -4.3877 O   0  0  0  0  0  0
   -3.0577  -10.9150   -4.6800 O   0  0  0  0  0  0
    0.7501  -11.2153    1.1955 O   0  0  0  0  0  0
    0.0153  -10.6284    2.2122 C   0  0  0  0  0  0
    0.0988   -9.4527    2.5424 O   0  0  0  0  0  0
   -0.9334  -11.6221    2.8954 C   0  0  0  0  0  0
   -1.9714  -10.9998    3.8802 C   0  0  0  0  0  0
   -3.4609  -11.0612    3.4952 C   0  0  0  0  0  0
   -4.1917   -9.7793    3.7727 C   0  0  0  0  0  0
   -3.7318   -8.8078    4.3568 O   0  0  0  0  0  0
   -5.4423   -9.7860    3.2864 O   0  0  0  0  0  0
   -1.8566  -11.4980    5.3263 C   0  0  0  0  0  0
   -1.8253  -10.7485    6.2823 O   0  0  0  0  0  0
   -1.8999  -12.8377    5.4827 O   0  0  0  0  0  0
    2.1918   -8.8949  -11.1810 H   0  0  0  0  0  0
    0.9153   -8.7202  -10.2007 H   0  0  0  0  0  0
    5.1419   -7.2964  -11.4887 H   0  0  0  0  0  0
    2.3876   -4.0944   -9.0291 H   0  0  0  0  0  0
    3.0219   -9.0158   -2.2037 H   0  0  0  0  0  0
   -1.6746   -9.9749   -6.4269 H   0  0  0  0  0  0
   -3.9502  -10.8918   -5.1062 H   0  0  0  0  0  0
   -5.8230   -8.9028    3.4772 H   0  0  0  0  0  0
   -1.7973  -13.1558    6.4071 H   0  0  0  0  0  0
  1  2  1  0  0  0
  2  3  1  0  0  0
  3  4  1  0  0  0
  4  5  1  0  0  0
  5  6  1  0  0  0
  5  7  1  0  0  0
  7  8  1  0  0  0
  7 39  1  0  0  0
  8  9  1  0  0  0
  8 27  1  0  0  0
  9 10  1  0  0  0
 10 11  1  0  0  0
 10 12  1  0  0  0
 12 13  1  0  0  0
 13 14  1  0  0  0
 13 26  1  0  0  0
 14 15  1  0  0  0
 15 16  1  0  0  0
 16 17  1  0  0  0
 17 18  1  0  0  0
 18 19  1  0  0  0
 18 25  1  0  0  0
 19 20  1  0  0  0
 20 21  1  0  0  0
 20 24  1  0  0  0
 21 22  1  0  0  0
 21 23  1  0  0  0
 23 51  1  0  0  0
 23 52  1  0  0  0
 24 53  1  0  0  0
 25 54  1  0  0  0
 26 55  1  0  0  0
 27 28  1  0  0  0
 28 29  2  0  0  0
 28 30  1  0  0  0
 30 31  1  0  0  0
 31 32  1  0  0  0
 31 36  1  0  0  0
 32 33  1  0  0  0
 33 34  2  0  0  0
 33 35  1  0  0  0
 35 56  1  0  0  0
 36 37  2  0  0  0
 36 38  1  0  0  0
 38 57  1  0  0  0
 39 40  1  0  0  0
 40 41  2  0  0  0
 40 42  1  0  0  0
 42 43  1  0  0  0
 43 44  1  0  0  0
 43 48  1  0  0  0
 44 45  1  0  0  0
 45 46  2  0  0  0
 45 47  1  0  0  0
 47 58  1  0  0  0
 48 49  2  0  0  0
 48 50  1  0  0  0
 50 59  1  0  0  0
M  END
>  <AUTHOR>
    GENERATED BY OPEN BABEL 2.4.1

>  <CHROM.1>
-173.58009205,-63.30918775,166.09650804,-87.79958246,47.43774850,76.28405723
-149.92429966,48.97064221,-58.74884125,-94.81184098,-84.76682499,-156.36232673
60.98027283,177.48108160,-173.82676186,-145.44820142,-56.13833177,63.27488077
167.54718441,65.73318301,51.62407223,58.77924116,-65.26836056,-14.33801622
-90.03196256,79.29379004,-170.27488997,110.14075469,110.52456819,-7.81181549
-179.75729038,5.14750638,-169.88307832,112.83796529,-137.32437294,130.86042056
-6.71118946,-177.47793843,178.12809877,0.95896491,-9.57570087,-2.17969579
-1.87345420,0.01737049,-1.26853420

>  <COMPND>
    UNNAMED

>  <MASTER>
        0    0    0    0    0    0    0    0  109    0  109    0

>  <Name>
FB1.pdb

>  <RI>
0

>  <Rbt.Current_Directory>
/cluster/tossine/F10/p3/0_clust01/stat

>  <Rbt.Executable>
rbdock/0.1.0

>  <Rbt.Library>
librxdock.so/0.1.0

>  <Rbt.Parameter_File>
/cluster/rxdock/data/scripts/dock.prm

>  <Rbt.Receptor>
rx_3.prm

>  <SCORE>
17.3939

>  <SCORE.INTER>
8.32709

>  <SCORE.INTER.CONST>
1

>  <SCORE.INTER.POLAR>
-2.80381

>  <SCORE.INTER.REPUL>
0.0259389

>  <SCORE.INTER.ROT>
32

>  <SCORE.INTER.VDW>
-19.6697

>  <SCORE.INTER.norm>
0.166542

>  <SCORE.INTRA>
2.59172

>  <SCORE.INTRA.DIHEDRAL>
-2.82173

>  <SCORE.INTRA.DIHEDRAL.0>
47.3121

>  <SCORE.INTRA.POLAR>
1.47808

>  <SCORE.INTRA.POLAR.0>
-1.47808

>  <SCORE.INTRA.REPUL>
0

>  <SCORE.INTRA.REPUL.0>
0

>  <SCORE.INTRA.VDW>
-1.02288

>  <SCORE.INTRA.VDW.0>
-2.78316

>  <SCORE.INTRA.norm>
0.0518343

>  <SCORE.RESTR>
6.47507

>  <SCORE.RESTR.CAVITY>
6.47507

>  <SCORE.RESTR.norm>
0.129501

>  <SCORE.SYSTEM>
0

>  <SCORE.SYSTEM.CONST>
0

>  <SCORE.SYSTEM.DIHEDRAL>
0

>  <SCORE.SYSTEM.norm>
0

>  <SCORE.heavy>
50

>  <SCORE.norm>
0.347877

$$$$
