FB1.pdb
  RxDock  10072012063D
librxdock.so/0.1.0
 59 58  0  0  0  0  0  0  0  0999 V2000
   -3.5330   -8.8164    7.8102 C   0  0  0  0  0  0
   -2.2027   -9.0960    8.5055 C   0  0  0  0  0  0
   -1.0739   -9.3516    7.4932 C   0  0  0  0  0  0
   -1.2257  -10.6872    6.7232 C   0  0  0  0  0  0
    0.0003  -11.0762    5.8254 C   0  0  0  0  0  0
    0.4154  -12.5248    6.1717 C   0  0  0  0  0  0
   -0.2789  -10.9221    4.2710 C   0  0  0  0  0  0
   -0.1371  -12.2417    3.3739 C   0  0  0  0  0  0
   -1.2426  -12.7895    2.3709 C   0  0  0  0  0  0
   -0.9261  -12.5319    0.7725 C   0  0  0  0  0  0
   -2.2549  -12.4203    0.0267 C   0  0  0  0  0  0
   -0.0134  -11.2688    0.4311 C   0  0  0  0  0  0
    0.8407  -11.1086   -0.9340 C   0  0  0  0  0  0
    0.1607  -10.9743   -2.3396 C   0  0  0  0  0  0
   -1.0507   -9.9468   -2.4998 C   0  0  0  0  0  0
   -2.5202  -10.3614   -2.9038 C   0  0  0  0  0  0
   -2.9468  -10.3093   -4.3947 C   0  0  0  0  0  0
   -2.1344   -9.3297   -5.3272 C   0  0  0  0  0  0
   -0.8632   -9.9000   -5.9684 C   0  0  0  0  0  0
    0.1122   -8.9156   -6.6739 C   0  0  0  0  0  0
    1.5351   -9.3821   -7.1019 C   0  0  0  0  0  0
    2.2899  -10.2535   -6.1078 C   0  0  0  0  0  0
    1.5028  -10.0109   -8.4361 N   0  0  0  0  0  0
   -0.5550   -8.5612   -7.9121 O   0  0  0  0  0  0
   -3.0094   -8.8849   -6.3695 O   0  0  0  0  0  0
    1.5888   -9.8933   -0.7614 O   0  0  0  0  0  0
    1.0373  -12.0426    2.5410 O   0  0  0  0  0  0
    2.1093  -11.4415    3.1198 C   0  0  0  0  0  0
    2.3205  -11.3417    4.3135 O   0  0  0  0  0  0
    3.0530  -11.0034    2.0341 C   0  0  0  0  0  0
    4.1217  -10.0220    2.5413 C   0  0  0  0  0  0
    5.2726  -10.7292    3.2684 C   0  0  0  0  0  0
    5.0594  -10.7205    4.7644 C   0  0  0  0  0  0
    4.4745  -11.6111    5.3714 O   0  0  0  0  0  0
    5.5748   -9.6411    5.3712 O   0  0  0  0  0  0
    4.6531   -9.2970    1.2972 C   0  0  0  0  0  0
    4.7172   -8.0801    1.2109 O   0  0  0  0  0  0
    4.9971  -10.1094    0.2884 O   0  0  0  0  0  0
   -1.5616  -10.2195    4.0244 O   0  0  0  0  0  0
   -1.6546   -8.8795    4.3619 C   0  0  0  0  0  0
   -0.7255   -8.2005    4.7792 O   0  0  0  0  0  0
   -3.0689   -8.3219    4.1543 C   0  0  0  0  0  0
   -3.4515   -7.9768    2.6815 C   0  0  0  0  0  0
   -4.0369   -6.5821    2.3941 C   0  0  0  0  0  0
   -4.9979   -6.5756    1.2405 C   0  0  0  0  0  0
   -6.1225   -7.0572    1.2459 O   0  0  0  0  0  0
   -4.5005   -5.9518    0.1617 O   0  0  0  0  0  0
   -2.3342   -8.2185    1.6591 C   0  0  0  0  0  0
   -1.4729   -9.0625    1.8093 O   0  0  0  0  0  0
   -2.4270   -7.5020    0.5192 O   0  0  0  0  0  0
    0.6036   -9.8175   -8.8748 H   0  0  0  0  0  0
    1.5260  -11.0264   -8.3192 H   0  0  0  0  0  0
   -1.4179   -8.1909   -7.6301 H   0  0  0  0  0  0
   -3.4459   -9.6670   -6.7546 H   0  0  0  0  0  0
    2.1770   -9.7907   -1.5282 H   0  0  0  0  0  0
    5.5392   -9.6551    6.3470 H   0  0  0  0  0  0
    4.9344  -11.0740    0.4990 H   0  0  0  0  0  0
   -5.2286   -5.8980   -0.4928 H   0  0  0  0  0  0
   -1.6737   -7.6051   -0.1038 H   0  0  0  0  0  0
  1  2  1  0  0  0
  2  3  1  0  0  0
  3  4  1  0  0  0
  4  5  1  0  0  0
  5  6  1  0  0  0
  5  7  1  0  0  0
  7  8  1  0  0  0
  7 39  1  0  0  0
  8  9  1  0  0  0
  8 27  1  0  0  0
  9 10  1  0  0  0
 10 11  1  0  0  0
 10 12  1  0  0  0
 12 13  1  0  0  0
 13 14  1  0  0  0
 13 26  1  0  0  0
 14 15  1  0  0  0
 15 16  1  0  0  0
 16 17  1  0  0  0
 17 18  1  0  0  0
 18 19  1  0  0  0
 18 25  1  0  0  0
 19 20  1  0  0  0
 20 21  1  0  0  0
 20 24  1  0  0  0
 21 22  1  0  0  0
 21 23  1  0  0  0
 23 51  1  0  0  0
 23 52  1  0  0  0
 24 53  1  0  0  0
 25 54  1  0  0  0
 26 55  1  0  0  0
 27 28  1  0  0  0
 28 29  2  0  0  0
 28 30  1  0  0  0
 30 31  1  0  0  0
 31 32  1  0  0  0
 31 36  1  0  0  0
 32 33  1  0  0  0
 33 34  2  0  0  0
 33 35  1  0  0  0
 35 56  1  0  0  0
 36 37  2  0  0  0
 36 38  1  0  0  0
 38 57  1  0  0  0
 39 40  1  0  0  0
 40 41  2  0  0  0
 40 42  1  0  0  0
 42 43  1  0  0  0
 43 44  1  0  0  0
 43 48  1  0  0  0
 44 45  1  0  0  0
 45 46  2  0  0  0
 45 47  1  0  0  0
 47 58  1  0  0  0
 48 49  2  0  0  0
 48 50  1  0  0  0
 50 59  1  0  0  0
M  END
>  <AUTHOR>
    GENERATED BY OPEN BABEL 2.4.1

>  <CHROM.1>
-69.27216585,-172.12301049,128.64944322,-120.36884181,127.72488982,68.19340067
104.62051671,39.48708565,-151.23463433,157.55722560,65.56563899,47.04205005
175.35730433,-118.18080180,-93.93745208,-23.95224784,87.37193094,-168.73887187
-49.12135899,168.31678851,-41.93204840,57.19422307,12.60459700,18.97722667
166.10883951,79.65925595,-96.25915633,128.28760417,90.88518947,-173.55925189
-4.70367627,4.61911498,-78.59924791,-129.04531820,-149.41852229,28.64804200
71.62103047,-173.06677151,175.39030235,-0.12178665,-9.81915498,0.96886812
1.47186973,-0.30801020,1.60335243

>  <COMPND>
    UNNAMED

>  <MASTER>
        0    0    0    0    0    0    0    0  109    0  109    0

>  <Name>
FB1.pdb

>  <RI>
0

>  <Rbt.Current_Directory>
/cluster/tossine/F10/p3/0_clust01/stat

>  <Rbt.Executable>
rbdock/0.1.0

>  <Rbt.Library>
librxdock.so/0.1.0

>  <Rbt.Parameter_File>
/cluster/rxdock/data/scripts/dock.prm

>  <Rbt.Receptor>
rx_3.prm

>  <SCORE>
51.0034

>  <SCORE.INTER>
16.2411

>  <SCORE.INTER.CONST>
1

>  <SCORE.INTER.POLAR>
-0.60261

>  <SCORE.INTER.REPUL>
0.488081

>  <SCORE.INTER.ROT>
32

>  <SCORE.INTER.VDW>
-21.5505

>  <SCORE.INTER.norm>
0.324821

>  <SCORE.INTRA>
27.2647

>  <SCORE.INTRA.DIHEDRAL>
30.8045

>  <SCORE.INTRA.DIHEDRAL.0>
47.3121

>  <SCORE.INTRA.POLAR>
0.680446

>  <SCORE.INTRA.POLAR.0>
-1.47808

>  <SCORE.INTRA.REPUL>
0

>  <SCORE.INTRA.REPUL.0>
0

>  <SCORE.INTRA.VDW>
9.5489

>  <SCORE.INTRA.VDW.0>
-2.78316

>  <SCORE.INTRA.norm>
0.545293

>  <SCORE.RESTR>
7.49765

>  <SCORE.RESTR.CAVITY>
7.49765

>  <SCORE.RESTR.norm>
0.149953

>  <SCORE.SYSTEM>
0

>  <SCORE.SYSTEM.CONST>
0

>  <SCORE.SYSTEM.DIHEDRAL>
0

>  <SCORE.SYSTEM.norm>
0

>  <SCORE.heavy>
50

>  <SCORE.norm>
1.02007

$$$$
