FB1.pdb
  RxDock  10072012073D
librxdock.so/0.1.0
 59 58  0  0  0  0  0  0  0  0999 V2000
   -5.3947  -11.9880    6.1806 C   0  0  0  0  0  0
   -4.1152  -11.6643    6.9484 C   0  0  0  0  0  0
   -3.7859  -10.1632    6.8991 C   0  0  0  0  0  0
   -2.7079   -9.7335    7.9252 C   0  0  0  0  0  0
   -1.7278   -8.6152    7.4259 C   0  0  0  0  0  0
   -0.9051   -8.1150    8.6357 C   0  0  0  0  0  0
   -0.7751   -9.0878    6.2482 C   0  0  0  0  0  0
   -0.6878  -10.6635    5.9733 C   0  0  0  0  0  0
   -1.2404  -11.3980    4.6759 C   0  0  0  0  0  0
   -0.4159  -11.0743    3.2842 C   0  0  0  0  0  0
    0.5289  -12.2402    2.9977 C   0  0  0  0  0  0
   -1.3047  -10.7763    1.9935 C   0  0  0  0  0  0
   -0.7348  -10.7786    0.4789 C   0  0  0  0  0  0
   -1.4759  -10.0572   -0.6986 C   0  0  0  0  0  0
   -0.9725  -10.3280   -2.1894 C   0  0  0  0  0  0
   -1.7293   -9.8371   -3.4859 C   0  0  0  0  0  0
   -1.4430  -10.5272   -4.8457 C   0  0  0  0  0  0
    0.0686  -10.6123   -5.2894 C   0  0  0  0  0  0
    0.6807   -9.3296   -5.8660 C   0  0  0  0  0  0
    2.1808   -9.3477   -6.2753 C   0  0  0  0  0  0
    3.2976   -9.2779   -5.1921 C   0  0  0  0  0  0
    3.3561   -8.0042   -4.3604 C   0  0  0  0  0  0
    3.2654  -10.4720   -4.3263 N   0  0  0  0  0  0
    2.3688  -10.6303   -6.9262 O   0  0  0  0  0  0
    0.8407  -11.0134   -4.1524 O   0  0  0  0  0  0
    0.5476  -10.1348    0.5656 O   0  0  0  0  0  0
    0.7248  -11.0040    6.0054 O   0  0  0  0  0  0
    1.5717  -10.1875    5.3261 C   0  0  0  0  0  0
    1.2577   -9.3544    4.4974 O   0  0  0  0  0  0
    2.9660  -10.4119    5.8429 C   0  0  0  0  0  0
    3.7874  -11.3452    4.9392 C   0  0  0  0  0  0
    3.0621  -12.6634    4.6400 C   0  0  0  0  0  0
    2.3821  -13.2042    5.8764 C   0  0  0  0  0  0
    2.6397  -12.8241    7.0134 O   0  0  0  0  0  0
    1.4625  -14.1442    5.6125 O   0  0  0  0  0  0
    4.0252  -10.5691    3.6365 C   0  0  0  0  0  0
    4.8919   -9.7166    3.5167 O   0  0  0  0  0  0
    3.1687  -10.8685    2.6502 O   0  0  0  0  0  0
   -1.0394   -8.3222    5.0057 O   0  0  0  0  0  0
   -2.3214   -8.3378    4.4821 C   0  0  0  0  0  0
   -3.0003   -9.3453    4.3324 O   0  0  0  0  0  0
   -2.8139   -6.9352    4.1018 C   0  0  0  0  0  0
   -3.5054   -6.8148    2.7083 C   0  0  0  0  0  0
   -2.7156   -7.2692    1.4672 C   0  0  0  0  0  0
   -3.3612   -6.8541    0.1767 C   0  0  0  0  0  0
   -4.0144   -7.5799   -0.5602 O   0  0  0  0  0  0
   -3.1661   -5.5558   -0.1004 O   0  0  0  0  0  0
   -4.8918   -7.4655    2.6261 C   0  0  0  0  0  0
   -5.8740   -6.8774    2.2185 O   0  0  0  0  0  0
   -4.9352   -8.7780    2.9369 O   0  0  0  0  0  0
    3.2375  -11.3070   -4.9098 H   0  0  0  0  0  0
    2.3810  -10.4796   -3.8132 H   0  0  0  0  0  0
    1.9589  -10.5207   -7.8101 H   0  0  0  0  0  0
    0.5972  -11.9302   -3.9274 H   0  0  0  0  0  0
    0.4068   -9.2247    0.8762 H   0  0  0  0  0  0
    1.3506  -14.3639    4.6677 H   0  0  0  0  0  0
    3.1879  -10.2407    1.8858 H   0  0  0  0  0  0
   -3.7824   -5.3277   -0.8280 H   0  0  0  0  0  0
   -4.0741   -9.1776    3.1922 H   0  0  0  0  0  0
  1  2  1  0  0  0
  2  3  1  0  0  0
  3  4  1  0  0  0
  4  5  1  0  0  0
  5  6  1  0  0  0
  5  7  1  0  0  0
  7  8  1  0  0  0
  7 39  1  0  0  0
  8  9  1  0  0  0
  8 27  1  0  0  0
  9 10  1  0  0  0
 10 11  1  0  0  0
 10 12  1  0  0  0
 12 13  1  0  0  0
 13 14  1  0  0  0
 13 26  1  0  0  0
 14 15  1  0  0  0
 15 16  1  0  0  0
 16 17  1  0  0  0
 17 18  1  0  0  0
 18 19  1  0  0  0
 18 25  1  0  0  0
 19 20  1  0  0  0
 20 21  1  0  0  0
 20 24  1  0  0  0
 21 22  1  0  0  0
 21 23  1  0  0  0
 23 51  1  0  0  0
 23 52  1  0  0  0
 24 53  1  0  0  0
 25 54  1  0  0  0
 26 55  1  0  0  0
 27 28  1  0  0  0
 28 29  2  0  0  0
 28 30  1  0  0  0
 30 31  1  0  0  0
 31 32  1  0  0  0
 31 36  1  0  0  0
 32 33  1  0  0  0
 33 34  2  0  0  0
 33 35  1  0  0  0
 35 56  1  0  0  0
 36 37  2  0  0  0
 36 38  1  0  0  0
 38 57  1  0  0  0
 39 40  1  0  0  0
 40 41  2  0  0  0
 40 42  1  0  0  0
 42 43  1  0  0  0
 43 44  1  0  0  0
 43 48  1  0  0  0
 44 45  1  0  0  0
 45 46  2  0  0  0
 45 47  1  0  0  0
 47 58  1  0  0  0
 48 49  2  0  0  0
 48 50  1  0  0  0
 50 59  1  0  0  0
M  END
>  <AUTHOR>
    GENERATED BY OPEN BABEL 2.4.1

>  <CHROM.1>
166.22876575,143.90233301,169.29618825,-13.92691256,112.06022639,-57.25833077
69.02848901,-45.60546392,100.46824781,-165.07873879,-159.98801198,-169.57064518
-62.02871270,171.35653101,-159.70417566,-53.27696271,-77.98467722,178.04409371
67.22837855,-76.36451125,-63.62049279,75.71481462,49.66818339,-14.67784226
99.24350232,-52.03208921,-41.73601019,80.21009284,-16.21198301,0.31345286
167.26046699,-46.88410850,134.30392704,-56.53105522,-168.37492303,127.91672128
-102.27270898,-167.07330900,0.56968491,-0.42932954,-9.85664630,2.06294633
1.78040575,-0.43741845,1.71358783

>  <COMPND>
    UNNAMED

>  <MASTER>
        0    0    0    0    0    0    0    0  109    0  109    0

>  <Name>
FB1.pdb

>  <RI>
0

>  <Rbt.Current_Directory>
/cluster/tossine/F10/p3/0_clust01/stat

>  <Rbt.Executable>
rbdock/0.1.0

>  <Rbt.Library>
librxdock.so/0.1.0

>  <Rbt.Parameter_File>
/cluster/rxdock/data/scripts/dock.prm

>  <Rbt.Receptor>
rx_3.prm

>  <SCORE>
24.0224

>  <SCORE.INTER>
11.1008

>  <SCORE.INTER.CONST>
1

>  <SCORE.INTER.POLAR>
0

>  <SCORE.INTER.REPUL>
0.408729

>  <SCORE.INTER.ROT>
32

>  <SCORE.INTER.VDW>
-28.3428

>  <SCORE.INTER.norm>
0.222016

>  <SCORE.INTRA>
9.49453

>  <SCORE.INTRA.DIHEDRAL>
14.9474

>  <SCORE.INTRA.DIHEDRAL.0>
47.3121

>  <SCORE.INTRA.POLAR>
0.308896

>  <SCORE.INTRA.POLAR.0>
-1.47808

>  <SCORE.INTRA.REPUL>
0

>  <SCORE.INTRA.REPUL.0>
0

>  <SCORE.INTRA.VDW>
0.970572

>  <SCORE.INTRA.VDW.0>
-2.78316

>  <SCORE.INTRA.norm>
0.189891

>  <SCORE.RESTR>
3.42706

>  <SCORE.RESTR.CAVITY>
3.42706

>  <SCORE.RESTR.norm>
0.0685411

>  <SCORE.SYSTEM>
0

>  <SCORE.SYSTEM.CONST>
0

>  <SCORE.SYSTEM.DIHEDRAL>
0

>  <SCORE.SYSTEM.norm>
0

>  <SCORE.heavy>
50

>  <SCORE.norm>
0.480448

$$$$
