FB1.pdb
  RxDock  10072012083D
librxdock.so/0.1.0
 59 58  0  0  0  0  0  0  0  0999 V2000
    5.8770   -9.9670   -1.1666 C   0  0  0  0  0  0
    5.4235  -10.3146   -2.5825 C   0  0  0  0  0  0
    3.8991  -10.4990   -2.6630 C   0  0  0  0  0  0
    3.2137  -10.5871   -1.2766 C   0  0  0  0  0  0
    1.7078  -11.0250   -1.3098 C   0  0  0  0  0  0
    1.6525  -12.5682   -1.3889 C   0  0  0  0  0  0
    0.8653  -10.4895   -0.0764 C   0  0  0  0  0  0
   -0.6673  -10.1140   -0.3527 C   0  0  0  0  0  0
   -1.5107   -9.0469    0.4709 C   0  0  0  0  0  0
   -2.2044   -9.6200    1.8535 C   0  0  0  0  0  0
   -2.1750   -8.5129    2.9059 C   0  0  0  0  0  0
   -3.6895  -10.1852    1.7130 C   0  0  0  0  0  0
   -4.8587   -9.9464    2.8060 C   0  0  0  0  0  0
   -4.7296  -10.4253    4.2926 C   0  0  0  0  0  0
   -3.3470  -11.0707    4.7630 C   0  0  0  0  0  0
   -2.9741  -11.3737    6.2676 C   0  0  0  0  0  0
   -2.9903  -10.2213    7.3063 C   0  0  0  0  0  0
   -2.5373   -8.8006    6.7911 C   0  0  0  0  0  0
   -2.6042   -7.6555    7.8093 C   0  0  0  0  0  0
   -1.5538   -7.6259    8.9557 C   0  0  0  0  0  0
   -1.6806   -8.5923   10.1703 C   0  0  0  0  0  0
   -2.0886   -7.9646   11.4958 C   0  0  0  0  0  0
   -2.5479   -9.7394    9.8409 N   0  0  0  0  0  0
   -0.3026   -7.9873    8.3172 O   0  0  0  0  0  0
   -1.1903   -8.9109    6.3186 O   0  0  0  0  0  0
   -5.0062   -8.5185    2.8834 O   0  0  0  0  0  0
   -0.7283   -9.6392   -1.7250 O   0  0  0  0  0  0
   -0.6963  -10.5794   -2.7050 C   0  0  0  0  0  0
   -1.2660  -11.6539   -2.6898 O   0  0  0  0  0  0
    0.0831  -10.0291   -3.8673 C   0  0  0  0  0  0
   -0.7604   -9.9262   -5.1480 C   0  0  0  0  0  0
   -1.4484   -8.5625   -5.2918 C   0  0  0  0  0  0
   -2.8789   -8.6200   -4.8083 C   0  0  0  0  0  0
   -3.3227   -7.9048   -3.9166 O   0  0  0  0  0  0
   -3.6239   -9.5315   -5.4510 O   0  0  0  0  0  0
    0.2133  -10.1487   -6.3135 C   0  0  0  0  0  0
    0.0924  -11.0593   -7.1190 O   0  0  0  0  0  0
    1.2404   -9.2886   -6.3480 O   0  0  0  0  0  0
    1.0144  -11.3794    1.1007 O   0  0  0  0  0  0
    2.2083  -11.3501    1.8021 C   0  0  0  0  0  0
    3.1210  -10.5623    1.5907 O   0  0  0  0  0  0
    2.2709  -12.4270    2.8933 C   0  0  0  0  0  0
    1.0498  -12.4805    3.8631 C   0  0  0  0  0  0
    1.0488  -13.5543    4.9664 C   0  0  0  0  0  0
    0.9454  -12.9757    6.3481 C   0  0  0  0  0  0
   -0.0897  -12.6311    6.9017 O   0  0  0  0  0  0
    2.1378  -12.8829    6.9561 O   0  0  0  0  0  0
    0.7079  -11.1434    4.5322 C   0  0  0  0  0  0
   -0.4040  -10.6541    4.4996 O   0  0  0  0  0  0
    1.7009  -10.5881    5.2580 O   0  0  0  0  0  0
   -3.4942   -9.4036    9.6671 H   0  0  0  0  0  0
   -2.6278  -10.3363   10.6671 H   0  0  0  0  0  0
   -0.4447   -8.9030    7.9968 H   0  0  0  0  0  0
   -1.1740   -9.5653    5.5961 H   0  0  0  0  0  0
   -5.9401   -8.3222    3.0673 H   0  0  0  0  0  0
   -3.1416  -10.0845   -6.0953 H   0  0  0  0  0  0
    1.8429   -9.4003   -7.1247 H   0  0  0  0  0  0
    2.7626  -13.4301    6.4351 H   0  0  0  0  0  0
    2.3337  -11.2242    5.6593 H   0  0  0  0  0  0
  1  2  1  0  0  0
  2  3  1  0  0  0
  3  4  1  0  0  0
  4  5  1  0  0  0
  5  6  1  0  0  0
  5  7  1  0  0  0
  7  8  1  0  0  0
  7 39  1  0  0  0
  8  9  1  0  0  0
  8 27  1  0  0  0
  9 10  1  0  0  0
 10 11  1  0  0  0
 10 12  1  0  0  0
 12 13  1  0  0  0
 13 14  1  0  0  0
 13 26  1  0  0  0
 14 15  1  0  0  0
 15 16  1  0  0  0
 16 17  1  0  0  0
 17 18  1  0  0  0
 18 19  1  0  0  0
 18 25  1  0  0  0
 19 20  1  0  0  0
 20 21  1  0  0  0
 20 24  1  0  0  0
 21 22  1  0  0  0
 21 23  1  0  0  0
 23 51  1  0  0  0
 23 52  1  0  0  0
 24 53  1  0  0  0
 25 54  1  0  0  0
 26 55  1  0  0  0
 27 28  1  0  0  0
 28 29  2  0  0  0
 28 30  1  0  0  0
 30 31  1  0  0  0
 31 32  1  0  0  0
 31 36  1  0  0  0
 32 33  1  0  0  0
 33 34  2  0  0  0
 33 35  1  0  0  0
 35 56  1  0  0  0
 36 37  2  0  0  0
 36 38  1  0  0  0
 38 57  1  0  0  0
 39 40  1  0  0  0
 40 41  2  0  0  0
 40 42  1  0  0  0
 42 43  1  0  0  0
 43 44  1  0  0  0
 43 48  1  0  0  0
 44 45  1  0  0  0
 45 46  2  0  0  0
 45 47  1  0  0  0
 47 58  1  0  0  0
 48 49  2  0  0  0
 48 50  1  0  0  0
 50 59  1  0  0  0
M  END
>  <AUTHOR>
    GENERATED BY OPEN BABEL 2.4.1

>  <CHROM.1>
-12.03339339,-169.72496906,82.95372990,145.77612355,-153.06920310,73.81008515
-84.75572000,77.35537145,144.39663033,-140.26115205,-59.69779842,4.77972672
147.19364679,169.17294760,-57.23847405,-35.13775946,177.85392740,72.32196612
59.85383162,-76.04066984,-108.32943215,-63.32261186,-64.60015384,40.13151111
-118.67889081,91.20280599,-97.46984569,120.07714950,122.11742217,4.38297990
-176.95813160,6.24966814,-50.86608076,179.16522703,121.87404054,127.02018361
82.35287107,-14.30270519,-29.19862162,-0.46859096,-10.21699157,1.81502917
-1.41647353,-0.34838090,1.60575864

>  <COMPND>
    UNNAMED

>  <MASTER>
        0    0    0    0    0    0    0    0  109    0  109    0

>  <Name>
FB1.pdb

>  <RI>
0

>  <Rbt.Current_Directory>
/cluster/tossine/F10/p3/0_clust01/stat

>  <Rbt.Executable>
rbdock/0.1.0

>  <Rbt.Library>
librxdock.so/0.1.0

>  <Rbt.Parameter_File>
/cluster/rxdock/data/scripts/dock.prm

>  <Rbt.Receptor>
rx_3.prm

>  <SCORE>
36.1673

>  <SCORE.INTER>
3.42218

>  <SCORE.INTER.CONST>
1

>  <SCORE.INTER.POLAR>
-2.13458

>  <SCORE.INTER.REPUL>
0.764636

>  <SCORE.INTER.ROT>
32

>  <SCORE.INTER.VDW>
-30.5434

>  <SCORE.INTER.norm>
0.0684435

>  <SCORE.INTRA>
28.5256

>  <SCORE.INTRA.DIHEDRAL>
37.414

>  <SCORE.INTRA.DIHEDRAL.0>
47.3121

>  <SCORE.INTRA.POLAR>
0.178402

>  <SCORE.INTRA.POLAR.0>
-1.47808

>  <SCORE.INTRA.REPUL>
0

>  <SCORE.INTRA.REPUL.0>
0

>  <SCORE.INTRA.VDW>
9.21202

>  <SCORE.INTRA.VDW.0>
-2.78316

>  <SCORE.INTRA.norm>
0.570512

>  <SCORE.RESTR>
4.21955

>  <SCORE.RESTR.CAVITY>
4.21955

>  <SCORE.RESTR.norm>
0.084391

>  <SCORE.SYSTEM>
0

>  <SCORE.SYSTEM.CONST>
0

>  <SCORE.SYSTEM.DIHEDRAL>
0

>  <SCORE.SYSTEM.norm>
0

>  <SCORE.heavy>
50

>  <SCORE.norm>
0.723346

$$$$
