FB1.pdb
  RxDock  10072012063D
librxdock.so/0.1.0
 59 58  0  0  0  0  0  0  0  0999 V2000
   -3.0238   -7.3615   -8.7069 C   0  0  0  0  0  0
   -1.9350   -8.4319   -8.7166 C   0  0  0  0  0  0
   -0.5697   -7.8516   -9.1210 C   0  0  0  0  0  0
   -0.6183   -7.0040  -10.4168 C   0  0  0  0  0  0
    0.7821   -6.6484  -11.0275 C   0  0  0  0  0  0
    0.5545   -5.9254  -12.3752 C   0  0  0  0  0  0
    1.6910   -5.7766  -10.0622 C   0  0  0  0  0  0
    2.9743   -6.4958   -9.4282 C   0  0  0  0  0  0
    3.2565   -8.0602   -9.4619 C   0  0  0  0  0  0
    2.3846   -8.9517   -8.3819 C   0  0  0  0  0  0
    1.9992  -10.2738   -9.0435 C   0  0  0  0  0  0
    3.0871   -9.2403   -6.9791 C   0  0  0  0  0  0
    2.3067   -9.2679   -5.5618 C   0  0  0  0  0  0
    1.5028  -10.5200   -5.0696 C   0  0  0  0  0  0
    0.6868  -10.4065   -3.7020 C   0  0  0  0  0  0
    1.1170  -11.1011   -2.3503 C   0  0  0  0  0  0
    2.3570  -10.5743   -1.5808 C   0  0  0  0  0  0
    2.1700  -10.3122   -0.0363 C   0  0  0  0  0  0
    1.5113  -11.4390    0.7692 C   0  0  0  0  0  0
    1.0883  -11.1464    2.2367 C   0  0  0  0  0  0
    2.0724  -11.4172    3.4130 C   0  0  0  0  0  0
    3.4053  -10.6834    3.3637 C   0  0  0  0  0  0
    1.4060  -11.2133    4.7133 N   0  0  0  0  0  0
    0.8461   -9.7167    2.2714 O   0  0  0  0  0  0
    3.4595  -10.0453    0.5258 O   0  0  0  0  0  0
    3.3299   -9.0663   -4.5724 O   0  0  0  0  0  0
    4.1330   -5.9070  -10.0789 O   0  0  0  0  0  0
    5.2902   -5.8760   -9.3681 C   0  0  0  0  0  0
    5.6781   -6.7246   -8.5878 O   0  0  0  0  0  0
    6.0704   -4.6589   -9.7818 C   0  0  0  0  0  0
    6.2560   -3.6573   -8.6308 C   0  0  0  0  0  0
    6.9978   -2.3879   -9.0689 C   0  0  0  0  0  0
    7.0986   -1.3961   -7.9334 C   0  0  0  0  0  0
    8.0680   -1.3160   -7.1868 O   0  0  0  0  0  0
    6.0220   -0.6044   -7.8184 O   0  0  0  0  0  0
    4.8427   -3.3002   -8.1502 C   0  0  0  0  0  0
    4.3250   -2.2120   -8.3509 O   0  0  0  0  0  0
    4.2374   -4.2665   -7.4460 O   0  0  0  0  0  0
    2.0355   -4.4742  -10.6827 O   0  0  0  0  0  0
    2.1434   -3.3622   -9.8642 C   0  0  0  0  0  0
    2.0701   -3.3871   -8.6426 O   0  0  0  0  0  0
    2.3694   -2.0705  -10.6609 C   0  0  0  0  0  0
    1.8990   -0.7550   -9.9661 C   0  0  0  0  0  0
    2.9409    0.0585   -9.1768 C   0  0  0  0  0  0
    2.4728    0.4322   -7.7999 C   0  0  0  0  0  0
    2.4454    1.5648   -7.3385 O   0  0  0  0  0  0
    2.0513   -0.6292   -7.0955 O   0  0  0  0  0  0
    1.1629    0.2250  -10.8880 C   0  0  0  0  0  0
    1.6762    0.7165  -11.8738 O   0  0  0  0  0  0
   -0.1386    0.4293  -10.5956 O   0  0  0  0  0  0
    2.1046  -11.2415    5.4547 H   0  0  0  0  0  0
    0.7953  -12.0127    4.8962 H   0  0  0  0  0  0
    0.1186   -9.5742    1.6297 H   0  0  0  0  0  0
    4.0317  -10.8156    0.3535 H   0  0  0  0  0  0
    3.7588   -8.2131   -4.7530 H   0  0  0  0  0  0
    5.3103   -0.7724   -8.4654 H   0  0  0  0  0  0
    4.8193   -5.0335   -7.2180 H   0  0  0  0  0  0
    1.7498   -0.2887   -6.2270 H   0  0  0  0  0  0
   -0.5610   -0.2708  -10.0500 H   0  0  0  0  0  0
  1  2  1  0  0  0
  2  3  1  0  0  0
  3  4  1  0  0  0
  4  5  1  0  0  0
  5  6  1  0  0  0
  5  7  1  0  0  0
  7  8  1  0  0  0
  7 39  1  0  0  0
  8  9  1  0  0  0
  8 27  1  0  0  0
  9 10  1  0  0  0
 10 11  1  0  0  0
 10 12  1  0  0  0
 12 13  1  0  0  0
 13 14  1  0  0  0
 13 26  1  0  0  0
 14 15  1  0  0  0
 15 16  1  0  0  0
 16 17  1  0  0  0
 17 18  1  0  0  0
 18 19  1  0  0  0
 18 25  1  0  0  0
 19 20  1  0  0  0
 20 21  1  0  0  0
 20 24  1  0  0  0
 21 22  1  0  0  0
 21 23  1  0  0  0
 23 51  1  0  0  0
 23 52  1  0  0  0
 24 53  1  0  0  0
 25 54  1  0  0  0
 26 55  1  0  0  0
 27 28  1  0  0  0
 28 29  2  0  0  0
 28 30  1  0  0  0
 30 31  1  0  0  0
 31 32  1  0  0  0
 31 36  1  0  0  0
 32 33  1  0  0  0
 33 34  2  0  0  0
 33 35  1  0  0  0
 35 56  1  0  0  0
 36 37  2  0  0  0
 36 38  1  0  0  0
 38 57  1  0  0  0
 39 40  1  0  0  0
 40 41  2  0  0  0
 40 42  1  0  0  0
 42 43  1  0  0  0
 43 44  1  0  0  0
 43 48  1  0  0  0
 44 45  1  0  0  0
 45 46  2  0  0  0
 45 47  1  0  0  0
 47 58  1  0  0  0
 48 49  2  0  0  0
 48 50  1  0  0  0
 50 59  1  0  0  0
M  END
>  <AUTHOR>
    GENERATED BY OPEN BABEL 2.4.1

>  <CHROM.1>
-49.94890706,-167.71979781,174.63544604,109.91891181,-12.23788992,145.19551600
-77.07618397,151.58326568,142.48993704,142.59522092,81.29062180,-175.87455917
59.23581684,-107.06265320,70.78556013,131.14761804,48.59335576,-169.98418389
-58.66171954,-90.90609073,58.39839617,61.11771662,-170.52200401,35.60686875
116.29724140,-177.45578770,177.01189711,-108.54778636,94.63811003,0.81825156
8.06778913,5.56241192,154.42161014,95.36190269,-130.58019475,-60.71796783
-126.00506564,-178.78475574,-20.33559011,2.60095943,-5.82351488,-6.66897352
1.40901207,-0.99805866,-0.99680586

>  <COMPND>
    UNNAMED

>  <MASTER>
        0    0    0    0    0    0    0    0  109    0  109    0

>  <Name>
FB1.pdb

>  <RI>
0

>  <Rbt.Current_Directory>
/cluster/tossine/F10/p3/0_clust01/stat

>  <Rbt.Executable>
rbdock/0.1.0

>  <Rbt.Library>
librxdock.so/0.1.0

>  <Rbt.Parameter_File>
/cluster/rxdock/data/scripts/dock.prm

>  <Rbt.Receptor>
rx_3.prm

>  <SCORE>
36.5002

>  <SCORE.INTER>
11.3831

>  <SCORE.INTER.CONST>
1

>  <SCORE.INTER.POLAR>
-1.06056

>  <SCORE.INTER.REPUL>
1.13273

>  <SCORE.INTER.ROT>
32

>  <SCORE.INTER.VDW>
-28.0746

>  <SCORE.INTER.norm>
0.227662

>  <SCORE.INTRA>
20.3337

>  <SCORE.INTRA.DIHEDRAL>
30.7541

>  <SCORE.INTRA.DIHEDRAL.0>
47.3121

>  <SCORE.INTRA.POLAR>
1.12622

>  <SCORE.INTRA.POLAR.0>
-1.47808

>  <SCORE.INTRA.REPUL>
0

>  <SCORE.INTRA.REPUL.0>
0

>  <SCORE.INTRA.VDW>
1.12755

>  <SCORE.INTRA.VDW.0>
-2.78316

>  <SCORE.INTRA.norm>
0.406674

>  <SCORE.RESTR>
4.78336

>  <SCORE.RESTR.CAVITY>
4.78336

>  <SCORE.RESTR.norm>
0.0956672

>  <SCORE.SYSTEM>
0

>  <SCORE.SYSTEM.CONST>
0

>  <SCORE.SYSTEM.DIHEDRAL>
0

>  <SCORE.SYSTEM.norm>
0

>  <SCORE.heavy>
50

>  <SCORE.norm>
0.730004

$$$$
