FB1.pdb
  RxDock  10072011533D
librxdock.so/0.1.0
 59 58  0  0  0  0  0  0  0  0999 V2000
    6.1716   -9.3694    5.4765 C   0  0  0  0  0  0
    5.0246   -9.8878    6.3409 C   0  0  0  0  0  0
    4.1149  -10.8517    5.5615 C   0  0  0  0  0  0
    2.6757  -10.9367    6.1283 C   0  0  0  0  0  0
    1.6208  -11.5793    5.1614 C   0  0  0  0  0  0
    1.6647  -13.1138    5.3458 C   0  0  0  0  0  0
    0.1490  -11.0244    5.3710 C   0  0  0  0  0  0
   -0.2184   -9.6474    4.6395 C   0  0  0  0  0  0
   -0.1942   -9.4117    3.0672 C   0  0  0  0  0  0
   -1.4373  -10.1085    2.2363 C   0  0  0  0  0  0
   -2.3444   -9.0013    1.7020 C   0  0  0  0  0  0
   -1.0259  -11.0850    1.0438 C   0  0  0  0  0  0
   -0.1818  -10.6232   -0.2573 C   0  0  0  0  0  0
    0.4830  -11.6512   -1.2358 C   0  0  0  0  0  0
    1.5266  -11.1050   -2.3136 C   0  0  0  0  0  0
    2.8465  -10.3163   -1.9523 C   0  0  0  0  0  0
    3.8569   -9.9617   -3.0750 C   0  0  0  0  0  0
    3.2640   -9.7774   -4.5254 C   0  0  0  0  0  0
    1.9385   -9.0123   -4.6253 C   0  0  0  0  0  0
    1.0141   -9.2948   -5.8435 C   0  0  0  0  0  0
    0.9663  -10.7113   -6.4890 C   0  0  0  0  0  0
    0.8541  -11.8890   -5.5309 C   0  0  0  0  0  0
   -0.0751  -10.7787   -7.5317 N   0  0  0  0  0  0
   -0.3290   -9.0628   -5.3474 O   0  0  0  0  0  0
    4.2424   -9.0976   -5.3195 O   0  0  0  0  0  0
   -1.1182   -9.8890   -1.0639 O   0  0  0  0  0  0
   -1.5823   -9.3313    5.0298 O   0  0  0  0  0  0
   -1.8335   -9.2219    6.3603 C   0  0  0  0  0  0
   -1.5999  -10.0623    7.2080 O   0  0  0  0  0  0
   -2.3599   -7.8399    6.6332 C   0  0  0  0  0  0
   -2.3151   -7.4752    8.1257 C   0  0  0  0  0  0
   -3.1249   -8.4470    8.9936 C   0  0  0  0  0  0
   -2.3148   -8.9270   10.1755 C   0  0  0  0  0  0
   -1.8880  -10.0713   10.2854 O   0  0  0  0  0  0
   -2.1029   -7.9777   11.0990 O   0  0  0  0  0  0
   -0.8343   -7.5216    8.5270 C   0  0  0  0  0  0
   -0.3994   -6.9858    9.5351 O   0  0  0  0  0  0
   -0.0439   -8.1587    7.6522 O   0  0  0  0  0  0
   -0.8624  -12.0776    5.1105 O   0  0  0  0  0  0
   -1.7154  -12.4410    6.1392 C   0  0  0  0  0  0
   -1.3989  -12.4938    7.3205 O   0  0  0  0  0  0
   -3.1258  -12.7768    5.6370 C   0  0  0  0  0  0
   -3.9287  -11.5864    5.0264 C   0  0  0  0  0  0
   -5.2116  -11.9078    4.2382 C   0  0  0  0  0  0
   -6.4301  -11.9948    5.1113 C   0  0  0  0  0  0
   -6.4542  -12.4034    6.2641 O   0  0  0  0  0  0
   -7.5355  -11.5482    4.4956 O   0  0  0  0  0  0
   -4.2763  -10.4738    6.0231 C   0  0  0  0  0  0
   -4.3748   -9.3061    5.7013 O   0  0  0  0  0  0
   -4.5741  -10.8875    7.2727 O   0  0  0  0  0  0
   -0.9779  -10.9515   -7.0916 H   0  0  0  0  0  0
    0.0968  -11.6027   -8.1123 H   0  0  0  0  0  0
   -0.4321   -8.0878   -5.3612 H   0  0  0  0  0  0
    4.4776   -8.2668   -4.8669 H   0  0  0  0  0  0
   -0.6533   -9.5819   -1.8601 H   0  0  0  0  0  0
   -2.7272   -7.2272   11.0758 H   0  0  0  0  0  0
   -0.0324   -9.1430    7.7512 H   0  0  0  0  0  0
   -7.3362  -11.5330    3.5357 H   0  0  0  0  0  0
   -4.7430  -10.1703    7.9232 H   0  0  0  0  0  0
  1  2  1  0  0  0
  2  3  1  0  0  0
  3  4  1  0  0  0
  4  5  1  0  0  0
  5  6  1  0  0  0
  5  7  1  0  0  0
  7  8  1  0  0  0
  7 39  1  0  0  0
  8  9  1  0  0  0
  8 27  1  0  0  0
  9 10  1  0  0  0
 10 11  1  0  0  0
 10 12  1  0  0  0
 12 13  1  0  0  0
 13 14  1  0  0  0
 13 26  1  0  0  0
 14 15  1  0  0  0
 15 16  1  0  0  0
 16 17  1  0  0  0
 17 18  1  0  0  0
 18 19  1  0  0  0
 18 25  1  0  0  0
 19 20  1  0  0  0
 20 21  1  0  0  0
 20 24  1  0  0  0
 21 22  1  0  0  0
 21 23  1  0  0  0
 23 51  1  0  0  0
 23 52  1  0  0  0
 24 53  1  0  0  0
 25 54  1  0  0  0
 26 55  1  0  0  0
 27 28  1  0  0  0
 28 29  2  0  0  0
 28 30  1  0  0  0
 30 31  1  0  0  0
 31 32  1  0  0  0
 31 36  1  0  0  0
 32 33  1  0  0  0
 33 34  2  0  0  0
 33 35  1  0  0  0
 35 56  1  0  0  0
 36 37  2  0  0  0
 36 38  1  0  0  0
 38 57  1  0  0  0
 39 40  1  0  0  0
 40 41  2  0  0  0
 40 42  1  0  0  0
 42 43  1  0  0  0
 43 44  1  0  0  0
 43 48  1  0  0  0
 44 45  1  0  0  0
 45 46  2  0  0  0
 45 47  1  0  0  0
 47 58  1  0  0  0
 48 49  2  0  0  0
 48 50  1  0  0  0
 50 59  1  0  0  0
M  END
>  <AUTHOR>
    GENERATED BY OPEN BABEL 2.4.1

>  <CHROM.1>
-155.62971632,163.92187405,85.95547973,83.16766213,60.99143061,119.65479304
73.99437470,57.26774735,111.12926525,-61.39282596,165.61120446,-168.05723233
179.54946927,58.25970749,173.76944684,28.13152725,41.58294623,-154.46847148
-55.32885292,32.27601685,46.09812664,79.48293995,-82.55096621,-55.00938156
-164.30915691,-58.76929356,130.66932224,161.89126759,-109.43847836,20.81599147
-82.81454925,-35.89648699,-65.97388199,167.12713276,87.34033105,148.72153456
-33.41646626,17.35414085,176.43712305,-0.71648293,-10.20972571,3.28767609
-1.88477431,-0.17220403,-1.65641065

>  <COMPND>
    UNNAMED

>  <MASTER>
        0    0    0    0    0    0    0    0  109    0  109    0

>  <Name>
FB1.pdb

>  <RI>
0

>  <Rbt.Current_Directory>
/cluster/tossine/F10/p3/0_clust01/stat

>  <Rbt.Executable>
rbdock/0.1.0

>  <Rbt.Library>
librxdock.so/0.1.0

>  <Rbt.Parameter_File>
/cluster/rxdock/data/scripts/dock.prm

>  <Rbt.Receptor>
rx_3.prm

>  <SCORE>
45.8668

>  <SCORE.INTER>
-0.183327

>  <SCORE.INTER.CONST>
1

>  <SCORE.INTER.POLAR>
-3.21776

>  <SCORE.INTER.REPUL>
0.174097

>  <SCORE.INTER.ROT>
32

>  <SCORE.INTER.VDW>
-27.5134

>  <SCORE.INTER.norm>
-0.00366653

>  <SCORE.INTRA>
43.5433

>  <SCORE.INTRA.DIHEDRAL>
61.056

>  <SCORE.INTRA.DIHEDRAL.0>
47.3121

>  <SCORE.INTRA.POLAR>
1.47808

>  <SCORE.INTRA.POLAR.0>
-1.47808

>  <SCORE.INTRA.REPUL>
0.0376811

>  <SCORE.INTRA.REPUL.0>
0

>  <SCORE.INTRA.VDW>
7.80145

>  <SCORE.INTRA.VDW.0>
-2.78316

>  <SCORE.INTRA.norm>
0.870867

>  <SCORE.RESTR>
2.50677

>  <SCORE.RESTR.CAVITY>
2.50677

>  <SCORE.RESTR.norm>
0.0501355

>  <SCORE.SYSTEM>
0

>  <SCORE.SYSTEM.CONST>
0

>  <SCORE.SYSTEM.DIHEDRAL>
0

>  <SCORE.SYSTEM.norm>
0

>  <SCORE.heavy>
50

>  <SCORE.norm>
0.917335

$$$$
