FB1.pdb
  RxDock  10072012063D
librxdock.so/0.1.0
 59 58  0  0  0  0  0  0  0  0999 V2000
   -1.3027  -10.4644    6.7491 C   0  0  0  0  0  0
   -1.7065  -11.9059    6.4485 C   0  0  0  0  0  0
   -0.5168  -12.7360    5.9390 C   0  0  0  0  0  0
   -0.2715  -12.5937    4.4161 C   0  0  0  0  0  0
    0.6549  -11.3967    4.0042 C   0  0  0  0  0  0
    2.0927  -11.7100    4.4788 C   0  0  0  0  0  0
    0.6268  -11.0800    2.4496 C   0  0  0  0  0  0
   -0.8078  -10.8101    1.7898 C   0  0  0  0  0  0
   -1.6059  -11.8422    0.8810 C   0  0  0  0  0  0
   -1.0473  -11.9912   -0.6640 C   0  0  0  0  0  0
   -1.8089  -13.1253   -1.3480 C   0  0  0  0  0  0
   -1.1185  -10.6781   -1.5671 C   0  0  0  0  0  0
   -0.9429  -10.6723   -3.1758 C   0  0  0  0  0  0
   -2.0866  -11.1243   -4.1474 C   0  0  0  0  0  0
   -3.3330  -10.1485   -4.3559 C   0  0  0  0  0  0
   -3.2387   -8.7138   -5.0094 C   0  0  0  0  0  0
   -4.4832   -8.1109   -5.7132 C   0  0  0  0  0  0
   -4.7376   -6.5688   -5.4977 C   0  0  0  0  0  0
   -5.0385   -6.1242   -4.0609 C   0  0  0  0  0  0
   -5.5331   -4.6684   -3.8279 C   0  0  0  0  0  0
   -5.7823   -4.1387   -2.3848 C   0  0  0  0  0  0
   -7.2319   -4.0868   -1.9230 C   0  0  0  0  0  0
   -4.9433   -4.8591   -1.4083 N   0  0  0  0  0  0
   -4.4738   -3.8310   -4.3575 O   0  0  0  0  0  0
   -3.5819   -5.8616   -5.9600 O   0  0  0  0  0  0
   -0.6838   -9.2995   -3.5143 O   0  0  0  0  0  0
   -1.7137  -10.5241    2.8899 O   0  0  0  0  0  0
   -2.8053   -9.7660    2.6089 C   0  0  0  0  0  0
   -3.9496   -9.9987    2.9492 O   0  0  0  0  0  0
   -2.3515   -8.5269    1.8877 C   0  0  0  0  0  0
   -3.1218   -7.2719    2.3284 C   0  0  0  0  0  0
   -4.6406   -7.4323    2.1834 C   0  0  0  0  0  0
   -5.2048   -6.4237    1.2099 C   0  0  0  0  0  0
   -5.1552   -5.2110    1.3848 O   0  0  0  0  0  0
   -5.7674   -6.9821    0.1280 O   0  0  0  0  0  0
   -2.7556   -7.0479    3.8020 C   0  0  0  0  0  0
   -2.4470   -5.9557    4.2539 O   0  0  0  0  0  0
   -2.7536   -8.1619    4.5469 O   0  0  0  0  0  0
    1.6052  -10.0213    2.1011 O   0  0  0  0  0  0
    2.4584  -10.2384    1.0319 C   0  0  0  0  0  0
    3.5281   -9.6666    0.8674 O   0  0  0  0  0  0
    1.9152  -11.2903    0.0558 C   0  0  0  0  0  0
    1.9222  -10.8841   -1.4506 C   0  0  0  0  0  0
    2.9564   -9.8419   -1.9139 C   0  0  0  0  0  0
    4.3547  -10.3864   -1.9669 C   0  0  0  0  0  0
    5.0299  -10.7139   -1.0008 O   0  0  0  0  0  0
    4.8120  -10.5049   -3.2228 O   0  0  0  0  0  0
    1.9980  -12.0631   -2.4286 C   0  0  0  0  0  0
    1.2948  -12.1481   -3.4161 O   0  0  0  0  0  0
    2.9773  -12.9584   -2.1821 O   0  0  0  0  0  0
   -4.0647   -5.1222   -1.8527 H   0  0  0  0  0  0
   -5.3979   -5.7456   -1.1782 H   0  0  0  0  0  0
   -4.9163   -2.9849   -4.5805 H   0  0  0  0  0  0
   -3.6161   -4.9556   -5.6016 H   0  0  0  0  0  0
   -0.3261   -9.2748   -4.4176 H   0  0  0  0  0  0
   -6.3535   -7.7419    0.3085 H   0  0  0  0  0  0
   -2.3582   -8.0525    5.4472 H   0  0  0  0  0  0
    4.0284  -10.6431   -3.7956 H   0  0  0  0  0  0
    2.8118  -13.5637   -1.4255 H   0  0  0  0  0  0
  1  2  1  0  0  0
  2  3  1  0  0  0
  3  4  1  0  0  0
  4  5  1  0  0  0
  5  6  1  0  0  0
  5  7  1  0  0  0
  7  8  1  0  0  0
  7 39  1  0  0  0
  8  9  1  0  0  0
  8 27  1  0  0  0
  9 10  1  0  0  0
 10 11  1  0  0  0
 10 12  1  0  0  0
 12 13  1  0  0  0
 13 14  1  0  0  0
 13 26  1  0  0  0
 14 15  1  0  0  0
 15 16  1  0  0  0
 16 17  1  0  0  0
 17 18  1  0  0  0
 18 19  1  0  0  0
 18 25  1  0  0  0
 19 20  1  0  0  0
 20 21  1  0  0  0
 20 24  1  0  0  0
 21 22  1  0  0  0
 21 23  1  0  0  0
 23 51  1  0  0  0
 23 52  1  0  0  0
 24 53  1  0  0  0
 25 54  1  0  0  0
 26 55  1  0  0  0
 27 28  1  0  0  0
 28 29  2  0  0  0
 28 30  1  0  0  0
 30 31  1  0  0  0
 31 32  1  0  0  0
 31 36  1  0  0  0
 32 33  1  0  0  0
 33 34  2  0  0  0
 33 35  1  0  0  0
 35 56  1  0  0  0
 36 37  2  0  0  0
 36 38  1  0  0  0
 38 57  1  0  0  0
 39 40  1  0  0  0
 40 41  2  0  0  0
 40 42  1  0  0  0
 42 43  1  0  0  0
 43 44  1  0  0  0
 43 48  1  0  0  0
 44 45  1  0  0  0
 45 46  2  0  0  0
 45 47  1  0  0  0
 47 58  1  0  0  0
 48 49  2  0  0  0
 48 50  1  0  0  0
 50 59  1  0  0  0
M  END
>  <AUTHOR>
    GENERATED BY OPEN BABEL 2.4.1

>  <CHROM.1>
-84.42978992,87.51129058,69.20933225,54.64984551,-104.18304946,131.39154117
-76.19435528,154.47808445,173.54509500,-165.74133419,77.22854359,73.82867387
164.25004142,64.27481001,153.82220357,140.59414993,-63.88410621,-169.74613869
-163.81568035,-176.77241010,-101.52095494,155.73322503,32.25198439,133.21201154
-140.67503163,-55.17232440,-118.35296116,133.98319919,-62.69562190,45.21531046
169.13325358,-158.04135252,130.59678730,26.05835152,72.84450201,134.77892939
-68.34021959,-27.89400114,75.17198990,-1.41289212,-9.21760258,-0.12735222
0.64170640,-0.63541811,1.73084891

>  <COMPND>
    UNNAMED

>  <MASTER>
        0    0    0    0    0    0    0    0  109    0  109    0

>  <Name>
FB1.pdb

>  <RI>
0

>  <Rbt.Current_Directory>
/cluster/tossine/F10/p3/0_clust01/stat

>  <Rbt.Executable>
rbdock/0.1.0

>  <Rbt.Library>
librxdock.so/0.1.0

>  <Rbt.Parameter_File>
/cluster/rxdock/data/scripts/dock.prm

>  <Rbt.Receptor>
rx_3.prm

>  <SCORE>
74.4568

>  <SCORE.INTER>
26.0321

>  <SCORE.INTER.CONST>
1

>  <SCORE.INTER.POLAR>
-0.307796

>  <SCORE.INTER.REPUL>
0.68091

>  <SCORE.INTER.ROT>
32

>  <SCORE.INTER.VDW>
-13.7259

>  <SCORE.INTER.norm>
0.520643

>  <SCORE.INTRA>
38.6198

>  <SCORE.INTRA.DIHEDRAL>
70.2793

>  <SCORE.INTRA.DIHEDRAL.0>
47.3121

>  <SCORE.INTRA.POLAR>
-0.339896

>  <SCORE.INTRA.POLAR.0>
-1.47808

>  <SCORE.INTRA.REPUL>
0

>  <SCORE.INTRA.REPUL.0>
0

>  <SCORE.INTRA.VDW>
4.63579

>  <SCORE.INTRA.VDW.0>
-2.78316

>  <SCORE.INTRA.norm>
0.772395

>  <SCORE.RESTR>
9.80486

>  <SCORE.RESTR.CAVITY>
9.80486

>  <SCORE.RESTR.norm>
0.196097

>  <SCORE.SYSTEM>
0

>  <SCORE.SYSTEM.CONST>
0

>  <SCORE.SYSTEM.DIHEDRAL>
0

>  <SCORE.SYSTEM.norm>
0

>  <SCORE.heavy>
50

>  <SCORE.norm>
1.48914

$$$$
