FB1.pdb
  RxDock  10072011523D
librxdock.so/0.1.0
 59 58  0  0  0  0  0  0  0  0999 V2000
    2.4729  -15.2500    6.3961 C   0  0  0  0  0  0
    1.9535  -13.8342    6.1571 C   0  0  0  0  0  0
    2.4263  -13.2750    4.8050 C   0  0  0  0  0  0
    1.2703  -12.7613    3.9109 C   0  0  0  0  0  0
    1.4217  -11.2790    3.4207 C   0  0  0  0  0  0
    2.7642  -11.1524    2.6643 C   0  0  0  0  0  0
    0.2135  -10.7836    2.5192 C   0  0  0  0  0  0
   -0.8990   -9.8769    3.2310 C   0  0  0  0  0  0
   -2.4221   -9.7793    2.7853 C   0  0  0  0  0  0
   -3.3183   -8.6579    3.5983 C   0  0  0  0  0  0
   -2.7102   -7.2785    3.3501 C   0  0  0  0  0  0
   -4.8769   -8.6241    3.2602 C   0  0  0  0  0  0
   -5.4822   -8.6927    1.7610 C   0  0  0  0  0  0
   -4.7971   -7.9798    0.5450 C   0  0  0  0  0  0
   -4.2755   -6.4835    0.7400 C   0  0  0  0  0  0
   -5.2192   -5.2264    0.8946 C   0  0  0  0  0  0
   -6.2772   -4.9254   -0.1996 C   0  0  0  0  0  0
   -5.9238   -5.3830   -1.6676 C   0  0  0  0  0  0
   -6.6477   -4.6464   -2.8016 C   0  0  0  0  0  0
   -6.0224   -3.3293   -3.3426 C   0  0  0  0  0  0
   -5.6753   -3.1803   -4.8534 C   0  0  0  0  0  0
   -4.9254   -4.3400   -5.4939 C   0  0  0  0  0  0
   -6.8760   -2.8320   -5.6366 N   0  0  0  0  0  0
   -7.0255   -2.3136   -3.0859 O   0  0  0  0  0  0
   -4.5127   -5.2262   -1.8515 O   0  0  0  0  0  0
   -5.4811  -10.0906    1.4257 O   0  0  0  0  0  0
   -0.9565  -10.3163    4.6152 O   0  0  0  0  0  0
   -0.6815   -9.3887    5.5687 C   0  0  0  0  0  0
    0.4230   -8.9952    5.8923 O   0  0  0  0  0  0
   -1.9820   -8.8471    6.0951 C   0  0  0  0  0  0
   -2.8500   -9.9317    6.7528 C   0  0  0  0  0  0
   -3.1553  -11.0974    5.8034 C   0  0  0  0  0  0
   -4.4858  -11.7339    6.1319 C   0  0  0  0  0  0
   -4.9223  -11.8431    7.2726 O   0  0  0  0  0  0
   -5.1507  -12.1699    5.0517 O   0  0  0  0  0  0
   -2.0511  -10.4352    7.9628 C   0  0  0  0  0  0
   -1.2527   -9.7390    8.5714 O   0  0  0  0  0  0
   -2.2643  -11.7222    8.2697 O   0  0  0  0  0  0
    0.7012  -10.1745    1.2579 O   0  0  0  0  0  0
    0.8919  -10.9964    0.1597 C   0  0  0  0  0  0
    0.5736  -12.1774    0.1101 O   0  0  0  0  0  0
    1.5554  -10.2607   -1.0120 C   0  0  0  0  0  0
    2.2573  -11.1670   -2.0706 C   0  0  0  0  0  0
    1.5298  -11.4180   -3.4041 C   0  0  0  0  0  0
    0.7879  -10.2119   -3.9036 C   0  0  0  0  0  0
   -0.3882   -9.9562   -3.6843 O   0  0  0  0  0  0
    1.5667   -9.3939   -4.6279 O   0  0  0  0  0  0
    3.6952  -10.7551   -2.4097 C   0  0  0  0  0  0
    4.6419  -11.5086   -2.2967 O   0  0  0  0  0  0
    3.8340   -9.5255   -2.9483 O   0  0  0  0  0  0
   -6.7022   -1.9679   -6.1481 H   0  0  0  0  0  0
   -7.6345   -2.6068   -4.9890 H   0  0  0  0  0  0
   -6.7181   -1.5305   -3.5894 H   0  0  0  0  0  0
   -4.3112   -5.3686   -2.7947 H   0  0  0  0  0  0
   -4.5581  -10.3704    1.3059 H   0  0  0  0  0  0
   -5.7811  -12.8972    5.2161 H   0  0  0  0  0  0
   -3.2049  -12.0150    8.1788 H   0  0  0  0  0  0
    1.0124   -8.6240   -4.8756 H   0  0  0  0  0  0
    3.1189   -8.8879   -2.7285 H   0  0  0  0  0  0
  1  2  1  0  0  0
  2  3  1  0  0  0
  3  4  1  0  0  0
  4  5  1  0  0  0
  5  6  1  0  0  0
  5  7  1  0  0  0
  7  8  1  0  0  0
  7 39  1  0  0  0
  8  9  1  0  0  0
  8 27  1  0  0  0
  9 10  1  0  0  0
 10 11  1  0  0  0
 10 12  1  0  0  0
 12 13  1  0  0  0
 13 14  1  0  0  0
 13 26  1  0  0  0
 14 15  1  0  0  0
 15 16  1  0  0  0
 16 17  1  0  0  0
 17 18  1  0  0  0
 18 19  1  0  0  0
 18 25  1  0  0  0
 19 20  1  0  0  0
 20 21  1  0  0  0
 20 24  1  0  0  0
 21 22  1  0  0  0
 21 23  1  0  0  0
 23 51  1  0  0  0
 23 52  1  0  0  0
 24 53  1  0  0  0
 25 54  1  0  0  0
 26 55  1  0  0  0
 27 28  1  0  0  0
 28 29  2  0  0  0
 28 30  1  0  0  0
 30 31  1  0  0  0
 31 32  1  0  0  0
 31 36  1  0  0  0
 32 33  1  0  0  0
 33 34  2  0  0  0
 33 35  1  0  0  0
 35 56  1  0  0  0
 36 37  2  0  0  0
 36 38  1  0  0  0
 38 57  1  0  0  0
 39 40  1  0  0  0
 40 41  2  0  0  0
 40 42  1  0  0  0
 42 43  1  0  0  0
 43 44  1  0  0  0
 43 48  1  0  0  0
 44 45  1  0  0  0
 45 46  2  0  0  0
 45 47  1  0  0  0
 47 58  1  0  0  0
 48 49  2  0  0  0
 48 50  1  0  0  0
 50 59  1  0  0  0
M  END
>  <AUTHOR>
    GENERATED BY OPEN BABEL 2.4.1

>  <CHROM.1>
126.27898439,125.25554308,56.83884753,100.44886615,-152.57020962,89.20375013
-174.23171626,120.24164638,61.10870118,-44.57071660,-37.61026272,-44.57462642
-70.39282358,-70.57806505,-55.79804238,-29.69323082,-157.03210682,86.95869549
-170.97661527,123.36871502,-46.90802911,-168.49339147,123.65912247,-78.03195508
61.54057912,-56.90474713,-150.43221655,28.47723912,-34.96297272,154.51913407
-39.32173802,6.95192333,159.33457117,102.70495923,37.28075067,123.50951658
-92.84149323,-177.62518972,24.92170348,-1.78540046,-9.20466121,1.48079170
-1.07649503,0.56598326,-1.17812654

>  <COMPND>
    UNNAMED

>  <MASTER>
        0    0    0    0    0    0    0    0  109    0  109    0

>  <Name>
FB1.pdb

>  <RI>
0

>  <Rbt.Current_Directory>
/cluster/tossine/F10/p3/0_clust01/stat

>  <Rbt.Executable>
rbdock/0.1.0

>  <Rbt.Library>
librxdock.so/0.1.0

>  <Rbt.Parameter_File>
/cluster/rxdock/data/scripts/dock.prm

>  <Rbt.Receptor>
rx_3.prm

>  <SCORE>
70.9946

>  <SCORE.INTER>
19.7985

>  <SCORE.INTER.CONST>
1

>  <SCORE.INTER.POLAR>
-1.16337

>  <SCORE.INTER.REPUL>
1.00031

>  <SCORE.INTER.ROT>
32

>  <SCORE.INTER.VDW>
-18.6475

>  <SCORE.INTER.norm>
0.39597

>  <SCORE.INTRA>
40.4202

>  <SCORE.INTRA.DIHEDRAL>
60.9486

>  <SCORE.INTRA.DIHEDRAL.0>
47.3121

>  <SCORE.INTRA.POLAR>
1.47808

>  <SCORE.INTRA.POLAR.0>
-1.47808

>  <SCORE.INTRA.REPUL>
0

>  <SCORE.INTRA.REPUL.0>
0

>  <SCORE.INTRA.VDW>
4.92046

>  <SCORE.INTRA.VDW.0>
-2.78316

>  <SCORE.INTRA.norm>
0.808404

>  <SCORE.RESTR>
10.7759

>  <SCORE.RESTR.CAVITY>
10.7759

>  <SCORE.RESTR.norm>
0.215518

>  <SCORE.SYSTEM>
0

>  <SCORE.SYSTEM.CONST>
0

>  <SCORE.SYSTEM.DIHEDRAL>
0

>  <SCORE.SYSTEM.norm>
0

>  <SCORE.heavy>
50

>  <SCORE.norm>
1.41989

$$$$
