FB1.pdb
  RxDock  10072012013D
librxdock.so/0.1.0
 59 58  0  0  0  0  0  0  0  0999 V2000
   -5.0987   -4.9917   -2.0541 C   0  0  0  0  0  0
   -5.3406   -5.2112   -0.5626 C   0  0  0  0  0  0
   -4.2572   -6.1040    0.0646 C   0  0  0  0  0  0
   -4.4959   -6.4027    1.5658 C   0  0  0  0  0  0
   -3.3187   -7.1467    2.2877 C   0  0  0  0  0  0
   -3.0405   -6.4290    3.6286 C   0  0  0  0  0  0
   -3.5930   -8.6926    2.5176 C   0  0  0  0  0  0
   -2.4628   -9.7122    2.0184 C   0  0  0  0  0  0
   -1.2640   -9.3427    1.0414 C   0  0  0  0  0  0
   -1.2176  -10.2029   -0.3654 C   0  0  0  0  0  0
   -2.2057   -9.5779   -1.3489 C   0  0  0  0  0  0
    0.2125  -10.3403   -1.0587 C   0  0  0  0  0  0
    0.4612  -11.0436   -2.4947 C   0  0  0  0  0  0
    1.8748  -11.1000   -3.1690 C   0  0  0  0  0  0
    2.0156  -11.8502   -4.5713 C   0  0  0  0  0  0
    2.3627  -11.1300   -5.9335 C   0  0  0  0  0  0
    1.3081  -10.2088   -6.6017 C   0  0  0  0  0  0
    0.5452   -9.2055   -5.6527 C   0  0  0  0  0  0
   -0.7318   -9.7359   -4.9890 C   0  0  0  0  0  0
   -2.0432   -9.7562   -5.8246 C   0  0  0  0  0  0
   -3.3777   -9.2330   -5.2156 C   0  0  0  0  0  0
   -3.2690   -8.0573   -4.2547 C   0  0  0  0  0  0
   -4.3667   -8.9583   -6.2752 N   0  0  0  0  0  0
   -1.7756   -8.8813   -6.9501 O   0  0  0  0  0  0
    1.4532   -8.7917   -4.6260 O   0  0  0  0  0  0
    0.0812  -12.4169   -2.3044 O   0  0  0  0  0  0
   -1.8095  -10.2129    3.2163 O   0  0  0  0  0  0
   -0.7904   -9.4691    3.7198 C   0  0  0  0  0  0
   -0.8986   -8.4434    4.3645 O   0  0  0  0  0  0
    0.5037  -10.1801    3.4349 C   0  0  0  0  0  0
    1.4803  -10.1263    4.6206 C   0  0  0  0  0  0
    1.0068  -10.9689    5.8119 C   0  0  0  0  0  0
    1.0847  -12.4455    5.5004 C   0  0  0  0  0  0
    0.9211  -12.9114    4.3780 O   0  0  0  0  0  0
    1.3530  -13.2044    6.5732 O   0  0  0  0  0  0
    2.8158  -10.6677    4.0920 C   0  0  0  0  0  0
    2.9724  -11.0498    2.9423 O   0  0  0  0  0  0
    3.7885  -10.7340    5.0115 O   0  0  0  0  0  0
   -4.0027   -8.9612    3.9175 O   0  0  0  0  0  0
   -3.9953  -10.2714    4.3665 C   0  0  0  0  0  0
   -4.4627  -11.2209    3.7515 O   0  0  0  0  0  0
   -3.3273  -10.4138    5.7405 C   0  0  0  0  0  0
   -3.0384  -11.8751    6.2050 C   0  0  0  0  0  0
   -2.0573  -12.0821    7.3733 C   0  0  0  0  0  0
   -2.3508  -11.1965    8.5497 C   0  0  0  0  0  0
   -2.8717  -10.0908    8.4981 O   0  0  0  0  0  0
   -1.9929  -11.7563    9.7154 O   0  0  0  0  0  0
   -4.2905  -12.7058    6.5124 C   0  0  0  0  0  0
   -4.7297  -13.5447    5.7509 O   0  0  0  0  0  0
   -4.8205  -12.5223    7.7399 O   0  0  0  0  0  0
   -4.0327   -8.1877   -6.8524 H   0  0  0  0  0  0
   -5.2235   -8.6092   -5.8398 H   0  0  0  0  0  0
   -1.5478   -8.0188   -6.5433 H   0  0  0  0  0  0
    2.2179   -8.3619   -5.0514 H   0  0  0  0  0  0
   -0.1337  -12.7928   -3.1745 H   0  0  0  0  0  0
    1.4444  -12.7183    7.4151 H   0  0  0  0  0  0
    4.6103  -11.1928    4.7067 H   0  0  0  0  0  0
   -1.7487  -12.6852    9.5182 H   0  0  0  0  0  0
   -5.6368  -13.0373    7.9258 H   0  0  0  0  0  0
  1  2  1  0  0  0
  2  3  1  0  0  0
  3  4  1  0  0  0
  4  5  1  0  0  0
  5  6  1  0  0  0
  5  7  1  0  0  0
  7  8  1  0  0  0
  7 39  1  0  0  0
  8  9  1  0  0  0
  8 27  1  0  0  0
  9 10  1  0  0  0
 10 11  1  0  0  0
 10 12  1  0  0  0
 12 13  1  0  0  0
 13 14  1  0  0  0
 13 26  1  0  0  0
 14 15  1  0  0  0
 15 16  1  0  0  0
 16 17  1  0  0  0
 17 18  1  0  0  0
 18 19  1  0  0  0
 18 25  1  0  0  0
 19 20  1  0  0  0
 20 21  1  0  0  0
 20 24  1  0  0  0
 21 22  1  0  0  0
 21 23  1  0  0  0
 23 51  1  0  0  0
 23 52  1  0  0  0
 24 53  1  0  0  0
 25 54  1  0  0  0
 26 55  1  0  0  0
 27 28  1  0  0  0
 28 29  2  0  0  0
 28 30  1  0  0  0
 30 31  1  0  0  0
 31 32  1  0  0  0
 31 36  1  0  0  0
 32 33  1  0  0  0
 33 34  2  0  0  0
 33 35  1  0  0  0
 35 56  1  0  0  0
 36 37  2  0  0  0
 36 38  1  0  0  0
 38 57  1  0  0  0
 39 40  1  0  0  0
 40 41  2  0  0  0
 40 42  1  0  0  0
 42 43  1  0  0  0
 43 44  1  0  0  0
 43 48  1  0  0  0
 44 45  1  0  0  0
 45 46  2  0  0  0
 45 47  1  0  0  0
 47 58  1  0  0  0
 48 49  2  0  0  0
 48 50  1  0  0  0
 50 59  1  0  0  0
M  END
>  <AUTHOR>
    GENERATED BY OPEN BABEL 2.4.1

>  <CHROM.1>
-177.56278274,-172.16661686,133.34080383,128.35033952,-14.31331371,-166.00304120
-120.28216482,-85.86561697,81.18407142,-175.19809381,177.18441692,178.51422891
157.50337454,113.13711018,-70.68606745,44.46833679,-88.29708024,-80.24331725
59.57346601,-133.86989916,34.49936255,-58.14443857,-65.57326041,76.95073641
-138.92102765,69.37019003,69.69109430,-0.38795573,-31.78939435,1.26351357
172.24284910,-46.39245394,-169.17335505,164.26937344,48.45869677,102.65043490
-29.18773763,-8.74498980,178.40726265,-1.41543359,-10.04884422,1.42379535
1.48267825,0.49518911,-1.35926887

>  <COMPND>
    UNNAMED

>  <MASTER>
        0    0    0    0    0    0    0    0  109    0  109    0

>  <Name>
FB1.pdb

>  <RI>
0

>  <Rbt.Current_Directory>
/cluster/tossine/F10/p3/0_clust01/stat

>  <Rbt.Executable>
rbdock/0.1.0

>  <Rbt.Library>
librxdock.so/0.1.0

>  <Rbt.Parameter_File>
/cluster/rxdock/data/scripts/dock.prm

>  <Rbt.Receptor>
rx_3.prm

>  <SCORE>
52.1586

>  <SCORE.INTER>
10.9582

>  <SCORE.INTER.CONST>
1

>  <SCORE.INTER.POLAR>
-1.60581

>  <SCORE.INTER.REPUL>
0.808225

>  <SCORE.INTER.ROT>
32

>  <SCORE.INTER.VDW>
-25.0231

>  <SCORE.INTER.norm>
0.219165

>  <SCORE.INTRA>
35.0935

>  <SCORE.INTRA.DIHEDRAL>
48.6814

>  <SCORE.INTRA.DIHEDRAL.0>
47.3121

>  <SCORE.INTRA.POLAR>
1.47808

>  <SCORE.INTRA.POLAR.0>
-1.47808

>  <SCORE.INTRA.REPUL>
0

>  <SCORE.INTRA.REPUL.0>
0

>  <SCORE.INTRA.VDW>
5.72729

>  <SCORE.INTRA.VDW.0>
-2.78316

>  <SCORE.INTRA.norm>
0.70187

>  <SCORE.RESTR>
6.10687

>  <SCORE.RESTR.CAVITY>
6.10687

>  <SCORE.RESTR.norm>
0.122137

>  <SCORE.SYSTEM>
0

>  <SCORE.SYSTEM.CONST>
0

>  <SCORE.SYSTEM.DIHEDRAL>
0

>  <SCORE.SYSTEM.norm>
0

>  <SCORE.heavy>
50

>  <SCORE.norm>
1.04317

$$$$
