FB1.pdb
  RxDock  10072012083D
librxdock.so/0.1.0
 59 58  0  0  0  0  0  0  0  0999 V2000
   -1.0720   -9.0895   -6.3179 C   0  0  0  0  0  0
   -2.3264   -8.9077   -5.4666 C   0  0  0  0  0  0
   -2.4145   -9.9613   -4.3502 C   0  0  0  0  0  0
   -1.7946   -9.4938   -3.0097 C   0  0  0  0  0  0
   -1.4613  -10.6452   -1.9979 C   0  0  0  0  0  0
   -0.1581  -11.3364   -2.4610 C   0  0  0  0  0  0
   -1.3385  -10.1515   -0.4948 C   0  0  0  0  0  0
   -2.4293   -9.0939    0.0130 C   0  0  0  0  0  0
   -3.5362   -8.4106   -0.9013 C   0  0  0  0  0  0
   -4.2972   -7.1121   -0.2259 C   0  0  0  0  0  0
   -3.2390   -6.0907    0.1875 C   0  0  0  0  0  0
   -5.4051   -6.3999   -1.1261 C   0  0  0  0  0  0
   -5.0877   -5.2350   -2.2036 C   0  0  0  0  0  0
   -4.6912   -5.5482   -3.6871 C   0  0  0  0  0  0
   -4.5548   -4.3283   -4.7082 C   0  0  0  0  0  0
   -5.7797   -3.5555   -5.3381 C   0  0  0  0  0  0
   -5.5208   -2.3944   -6.3342 C   0  0  0  0  0  0
   -6.0577   -2.5930   -7.8044 C   0  0  0  0  0  0
   -6.3086   -1.3150   -8.6144 C   0  0  0  0  0  0
   -7.2680   -0.2435   -8.0229 C   0  0  0  0  0  0
   -6.9071    0.4992   -6.7025 C   0  0  0  0  0  0
   -6.1295    1.7999   -6.8476 C   0  0  0  0  0  0
   -8.1053    0.6920   -5.8636 N   0  0  0  0  0  0
   -7.3273    0.7950   -9.0337 O   0  0  0  0  0  0
   -5.1139   -3.4029   -8.5136 O   0  0  0  0  0  0
   -6.3035   -4.4731   -2.2930 O   0  0  0  0  0  0
   -3.1877   -9.7621    1.0574 O   0  0  0  0  0  0
   -3.7724   -8.9732    1.9960 C   0  0  0  0  0  0
   -4.9273   -8.5915    1.9969 O   0  0  0  0  0  0
   -2.7788   -8.7281    3.0979 C   0  0  0  0  0  0
   -3.4417   -8.6411    4.4819 C   0  0  0  0  0  0
   -3.6719  -10.0206    5.1122 C   0  0  0  0  0  0
   -2.4109  -10.5397    5.7633 C   0  0  0  0  0  0
   -2.3500  -10.8966    6.9349 O   0  0  0  0  0  0
   -1.3573  -10.5756    4.9342 O   0  0  0  0  0  0
   -2.4865   -7.8169    5.3561 C   0  0  0  0  0  0
   -2.3470   -8.0078    6.5547 O   0  0  0  0  0  0
   -1.8506   -6.8332    4.7050 O   0  0  0  0  0  0
   -1.2029  -11.2982    0.4360 O   0  0  0  0  0  0
   -0.6779  -11.0655    1.6963 C   0  0  0  0  0  0
   -0.9315  -11.7332    2.6904 O   0  0  0  0  0  0
    0.2733   -9.8617    1.7194 C   0  0  0  0  0  0
    1.7119  -10.1454    2.2528 C   0  0  0  0  0  0
    1.8952  -11.2904    3.2656 C   0  0  0  0  0  0
    2.1263  -10.8027    4.6668 C   0  0  0  0  0  0
    2.9833  -10.0004    5.0108 O   0  0  0  0  0  0
    1.2606  -11.3331    5.5440 O   0  0  0  0  0  0
    2.7715  -10.3334    1.1600 C   0  0  0  0  0  0
    3.8893   -9.8628    1.2363 O   0  0  0  0  0  0
    2.4192  -11.1510    0.1459 O   0  0  0  0  0  0
   -8.5449    1.5783   -6.1078 H   0  0  0  0  0  0
   -7.8088    0.8039   -4.8915 H   0  0  0  0  0  0
   -7.9939    1.4300   -8.6962 H   0  0  0  0  0  0
   -5.4937   -4.2952   -8.6141 H   0  0  0  0  0  0
   -6.0835   -3.5967   -2.6506 H   0  0  0  0  0  0
   -0.5417  -10.9558    5.3132 H   0  0  0  0  0  0
   -2.3268   -6.4955    3.9063 H   0  0  0  0  0  0
    1.4415  -10.9089    6.4093 H   0  0  0  0  0  0
    3.0799  -11.2312   -0.5775 H   0  0  0  0  0  0
  1  2  1  0  0  0
  2  3  1  0  0  0
  3  4  1  0  0  0
  4  5  1  0  0  0
  5  6  1  0  0  0
  5  7  1  0  0  0
  7  8  1  0  0  0
  7 39  1  0  0  0
  8  9  1  0  0  0
  8 27  1  0  0  0
  9 10  1  0  0  0
 10 11  1  0  0  0
 10 12  1  0  0  0
 12 13  1  0  0  0
 13 14  1  0  0  0
 13 26  1  0  0  0
 14 15  1  0  0  0
 15 16  1  0  0  0
 16 17  1  0  0  0
 17 18  1  0  0  0
 18 19  1  0  0  0
 18 25  1  0  0  0
 19 20  1  0  0  0
 20 21  1  0  0  0
 20 24  1  0  0  0
 21 22  1  0  0  0
 21 23  1  0  0  0
 23 51  1  0  0  0
 23 52  1  0  0  0
 24 53  1  0  0  0
 25 54  1  0  0  0
 26 55  1  0  0  0
 27 28  1  0  0  0
 28 29  2  0  0  0
 28 30  1  0  0  0
 30 31  1  0  0  0
 31 32  1  0  0  0
 31 36  1  0  0  0
 32 33  1  0  0  0
 33 34  2  0  0  0
 33 35  1  0  0  0
 35 56  1  0  0  0
 36 37  2  0  0  0
 36 38  1  0  0  0
 38 57  1  0  0  0
 39 40  1  0  0  0
 40 41  2  0  0  0
 40 42  1  0  0  0
 42 43  1  0  0  0
 43 44  1  0  0  0
 43 48  1  0  0  0
 44 45  1  0  0  0
 45 46  2  0  0  0
 45 47  1  0  0  0
 47 58  1  0  0  0
 48 49  2  0  0  0
 48 50  1  0  0  0
 50 59  1  0  0  0
M  END
>  <AUTHOR>
    GENERATED BY OPEN BABEL 2.4.1

>  <CHROM.1>
92.82530614,-162.03236715,77.29997981,42.20006818,-5.68751502,160.21326854
-166.28532197,153.96509632,55.60240767,-86.63334100,87.42261074,173.42539645
159.20446264,-75.41085153,-179.27177930,117.02475424,156.82744116,-56.01086046
105.90217578,64.26760585,90.82412949,175.05643624,-89.67253747,96.64253715
-145.19178896,83.80634655,81.33331080,-146.95888880,125.14514065,-176.57167851
25.67351571,152.53008775,-123.91270388,-27.76371270,-105.58446437,138.66211175
-53.26814446,-175.75356964,176.78454879,-2.64938622,-7.46083271,-0.60267006
-2.19963610,-0.81359969,1.77262769

>  <COMPND>
    UNNAMED

>  <MASTER>
        0    0    0    0    0    0    0    0  109    0  109    0

>  <Name>
FB1.pdb

>  <RI>
0

>  <Rbt.Current_Directory>
/cluster/tossine/F10/p3/0_clust01/stat

>  <Rbt.Executable>
rbdock/0.1.0

>  <Rbt.Library>
librxdock.so/0.1.0

>  <Rbt.Parameter_File>
/cluster/rxdock/data/scripts/dock.prm

>  <Rbt.Receptor>
rx_3.prm

>  <SCORE>
52.1034

>  <SCORE.INTER>
11.4244

>  <SCORE.INTER.CONST>
1

>  <SCORE.INTER.POLAR>
-1.9074

>  <SCORE.INTER.REPUL>
0.0444549

>  <SCORE.INTER.ROT>
32

>  <SCORE.INTER.VDW>
-19.7127

>  <SCORE.INTER.norm>
0.228489

>  <SCORE.INTRA>
31.8884

>  <SCORE.INTRA.DIHEDRAL>
52.6416

>  <SCORE.INTRA.DIHEDRAL.0>
47.3121

>  <SCORE.INTRA.POLAR>
0.478077

>  <SCORE.INTRA.POLAR.0>
-1.47808

>  <SCORE.INTRA.REPUL>
0

>  <SCORE.INTRA.REPUL.0>
0

>  <SCORE.INTRA.VDW>
3.94209

>  <SCORE.INTRA.VDW.0>
-2.78316

>  <SCORE.INTRA.norm>
0.637767

>  <SCORE.RESTR>
8.79061

>  <SCORE.RESTR.CAVITY>
8.79061

>  <SCORE.RESTR.norm>
0.175812

>  <SCORE.SYSTEM>
0

>  <SCORE.SYSTEM.CONST>
0

>  <SCORE.SYSTEM.DIHEDRAL>
0

>  <SCORE.SYSTEM.norm>
0

>  <SCORE.heavy>
50

>  <SCORE.norm>
1.04207

$$$$
