FB1.pdb
  RxDock  10072012073D
librxdock.so/0.1.0
 59 58  0  0  0  0  0  0  0  0999 V2000
    2.8506  -14.8752    4.4208 C   0  0  0  0  0  0
    3.8924  -13.8849    4.9360 C   0  0  0  0  0  0
    4.0758  -12.6995    3.9740 C   0  0  0  0  0  0
    2.7473  -11.9952    3.6016 C   0  0  0  0  0  0
    2.0384  -11.2508    4.7865 C   0  0  0  0  0  0
    2.8077   -9.9390    5.0654 C   0  0  0  0  0  0
    0.5005  -10.9618    4.5231 C   0  0  0  0  0  0
    0.0879  -10.5272    3.0375 C   0  0  0  0  0  0
    0.0540  -11.4957    1.7769 C   0  0  0  0  0  0
    0.6158  -10.8365    0.3730 C   0  0  0  0  0  0
    1.9279  -11.5268    0.0039 C   0  0  0  0  0  0
   -0.3803  -10.8801   -0.8723 C   0  0  0  0  0  0
   -0.0601  -10.2191   -2.3142 C   0  0  0  0  0  0
    0.8252  -10.9372   -3.3897 C   0  0  0  0  0  0
    1.3495  -10.0826   -4.6323 C   0  0  0  0  0  0
    0.4090   -9.4083   -5.7072 C   0  0  0  0  0  0
   -0.6975  -10.2531   -6.3925 C   0  0  0  0  0  0
   -2.0150  -10.4986   -5.5599 C   0  0  0  0  0  0
   -3.1264   -9.4543   -5.7233 C   0  0  0  0  0  0
   -2.7725   -7.9582   -5.4895 C   0  0  0  0  0  0
   -3.5528   -6.8348   -6.2341 C   0  0  0  0  0  0
   -4.5888   -7.2900   -7.2524 C   0  0  0  0  0  0
   -4.1398   -5.8789   -5.2759 N   0  0  0  0  0  0
   -3.0412   -7.7325   -4.0821 O   0  0  0  0  0  0
   -2.5373  -11.7800   -5.9275 O   0  0  0  0  0  0
   -1.3447  -10.0511   -2.9372 O   0  0  0  0  0  0
   -1.2661  -10.0066    3.1277 O   0  0  0  0  0  0
   -2.2746  -10.9155    3.1750 C   0  0  0  0  0  0
   -2.2564  -11.9803    3.7625 O   0  0  0  0  0  0
   -3.4665  -10.3415    2.4599 C   0  0  0  0  0  0
   -4.4973   -9.7336    3.4246 C   0  0  0  0  0  0
   -4.3699  -10.2894    4.8488 C   0  0  0  0  0  0
   -5.5200  -11.2124    5.1786 C   0  0  0  0  0  0
   -5.4747  -12.0646    6.0592 O   0  0  0  0  0  0
   -6.6034  -11.0104    4.4143 O   0  0  0  0  0  0
   -4.2339   -8.2215    3.4253 C   0  0  0  0  0  0
   -3.4639   -7.6790    4.2032 O   0  0  0  0  0  0
   -4.9578   -7.5336    2.5315 O   0  0  0  0  0  0
   -0.3470  -12.0670    5.0329 O   0  0  0  0  0  0
   -0.3437  -12.3264    6.3933 C   0  0  0  0  0  0
    0.6026  -12.7982    7.0100 O   0  0  0  0  0  0
   -1.6737  -11.9541    7.0619 C   0  0  0  0  0  0
   -1.7025  -10.5749    7.7909 C   0  0  0  0  0  0
   -2.2155   -9.3530    7.0072 C   0  0  0  0  0  0
   -1.1270   -8.3780    6.6624 C   0  0  0  0  0  0
   -0.3940   -7.8143    7.4634 O   0  0  0  0  0  0
   -1.0112   -8.1847    5.3397 O   0  0  0  0  0  0
   -2.4275  -10.5831    9.1424 C   0  0  0  0  0  0
   -2.0106   -9.9921   10.1189 O   0  0  0  0  0  0
   -3.6250  -11.2054    9.1538 O   0  0  0  0  0  0
   -4.9985   -5.4962   -5.6694 H   0  0  0  0  0  0
   -3.5109   -5.0776   -5.1870 H   0  0  0  0  0  0
   -2.3918   -8.2980   -3.6132 H   0  0  0  0  0  0
   -3.3294  -11.9524   -5.3857 H   0  0  0  0  0  0
   -1.9648   -9.7237   -2.2642 H   0  0  0  0  0  0
   -7.3702  -11.5790    4.6199 H   0  0  0  0  0  0
   -4.4594   -7.2640    1.7205 H   0  0  0  0  0  0
   -1.3304   -9.0044    4.9066 H   0  0  0  0  0  0
   -4.1135  -11.1599   10.0055 H   0  0  0  0  0  0
  1  2  1  0  0  0
  2  3  1  0  0  0
  3  4  1  0  0  0
  4  5  1  0  0  0
  5  6  1  0  0  0
  5  7  1  0  0  0
  7  8  1  0  0  0
  7 39  1  0  0  0
  8  9  1  0  0  0
  8 27  1  0  0  0
  9 10  1  0  0  0
 10 11  1  0  0  0
 10 12  1  0  0  0
 12 13  1  0  0  0
 13 14  1  0  0  0
 13 26  1  0  0  0
 14 15  1  0  0  0
 15 16  1  0  0  0
 16 17  1  0  0  0
 17 18  1  0  0  0
 18 19  1  0  0  0
 18 25  1  0  0  0
 19 20  1  0  0  0
 20 21  1  0  0  0
 20 24  1  0  0  0
 21 22  1  0  0  0
 21 23  1  0  0  0
 23 51  1  0  0  0
 23 52  1  0  0  0
 24 53  1  0  0  0
 25 54  1  0  0  0
 26 55  1  0  0  0
 27 28  1  0  0  0
 28 29  2  0  0  0
 28 30  1  0  0  0
 30 31  1  0  0  0
 31 32  1  0  0  0
 31 36  1  0  0  0
 32 33  1  0  0  0
 33 34  2  0  0  0
 33 35  1  0  0  0
 35 56  1  0  0  0
 36 37  2  0  0  0
 36 38  1  0  0  0
 38 57  1  0  0  0
 39 40  1  0  0  0
 40 41  2  0  0  0
 40 42  1  0  0  0
 42 43  1  0  0  0
 43 44  1  0  0  0
 43 48  1  0  0  0
 44 45  1  0  0  0
 45 46  2  0  0  0
 45 47  1  0  0  0
 47 58  1  0  0  0
 48 49  2  0  0  0
 48 50  1  0  0  0
 50 59  1  0  0  0
M  END
>  <AUTHOR>
    GENERATED BY OPEN BABEL 2.4.1

>  <CHROM.1>
52.47194715,66.71000758,75.41705880,-38.90283307,72.48595737,63.08954221
-139.82398884,-79.93700695,111.43220520,176.50467530,81.34319691,-166.56287628
41.78956901,-62.86928805,-50.34585519,78.98811821,89.64349226,-53.41444804
177.48952781,151.14948860,-4.11933614,64.97330751,-149.52717212,37.99973906
-98.77034070,-21.57838994,-108.08781540,-90.17627854,158.30583391,-178.59758759
-102.78613723,-69.60049186,-98.85201691,94.01501315,-109.38883322,138.64586258
-58.10094485,-27.20530511,-176.26574560,-1.42085900,-10.29268989,1.98557730
-1.50126281,0.43997395,-1.44371156

>  <COMPND>
    UNNAMED

>  <MASTER>
        0    0    0    0    0    0    0    0  109    0  109    0

>  <Name>
FB1.pdb

>  <RI>
0

>  <Rbt.Current_Directory>
/cluster/tossine/F10/p3/0_clust01/stat

>  <Rbt.Executable>
rbdock/0.1.0

>  <Rbt.Library>
librxdock.so/0.1.0

>  <Rbt.Parameter_File>
/cluster/rxdock/data/scripts/dock.prm

>  <Rbt.Receptor>
rx_3.prm

>  <SCORE>
47.7807

>  <SCORE.INTER>
6.84821

>  <SCORE.INTER.CONST>
1

>  <SCORE.INTER.POLAR>
-2.00744

>  <SCORE.INTER.REPUL>
0.846208

>  <SCORE.INTER.ROT>
32

>  <SCORE.INTER.VDW>
-27.9575

>  <SCORE.INTER.norm>
0.136964

>  <SCORE.INTRA>
36.8572

>  <SCORE.INTRA.DIHEDRAL>
72.7614

>  <SCORE.INTRA.DIHEDRAL.0>
47.3121

>  <SCORE.INTRA.POLAR>
-0.208416

>  <SCORE.INTRA.POLAR.0>
-1.47808

>  <SCORE.INTRA.REPUL>
0

>  <SCORE.INTRA.REPUL.0>
0

>  <SCORE.INTRA.VDW>
1.1851

>  <SCORE.INTRA.VDW.0>
-2.78316

>  <SCORE.INTRA.norm>
0.737144

>  <SCORE.RESTR>
4.07528

>  <SCORE.RESTR.CAVITY>
4.07528

>  <SCORE.RESTR.norm>
0.0815056

>  <SCORE.SYSTEM>
0

>  <SCORE.SYSTEM.CONST>
0

>  <SCORE.SYSTEM.DIHEDRAL>
0

>  <SCORE.SYSTEM.norm>
0

>  <SCORE.heavy>
50

>  <SCORE.norm>
0.955614

$$$$
