FB1.pdb
  RxDock  10072012043D
librxdock.so/0.1.0
 59 58  0  0  0  0  0  0  0  0999 V2000
    3.2116  -15.2508    4.3303 C   0  0  0  0  0  0
    2.4449  -13.9406    4.4939 C   0  0  0  0  0  0
    1.4162  -14.0214    5.6339 C   0  0  0  0  0  0
    0.5423  -12.7495    5.7684 C   0  0  0  0  0  0
   -0.2894  -12.3802    4.4907 C   0  0  0  0  0  0
   -1.7333  -12.8979    4.6849 C   0  0  0  0  0  0
   -0.2829  -10.8288    4.1575 C   0  0  0  0  0  0
   -1.5578   -9.9803    4.6273 C   0  0  0  0  0  0
   -2.9782   -9.9912    3.9126 C   0  0  0  0  0  0
   -2.9385   -9.8001    2.2746 C   0  0  0  0  0  0
   -2.7948   -8.3113    1.9632 C   0  0  0  0  0  0
   -1.8117  -10.6201    1.4981 C   0  0  0  0  0  0
   -1.6937  -10.6973   -0.1139 C   0  0  0  0  0  0
   -1.5101   -9.4211   -1.0049 C   0  0  0  0  0  0
   -2.0001   -9.4807   -2.5233 C   0  0  0  0  0  0
   -1.4054  -10.4591   -3.6113 C   0  0  0  0  0  0
   -1.2564   -9.9729   -5.0771 C   0  0  0  0  0  0
   -2.2568   -8.8495   -5.5530 C   0  0  0  0  0  0
   -2.3023   -8.5748   -7.0613 C   0  0  0  0  0  0
   -3.1415   -7.3666   -7.5657 C   0  0  0  0  0  0
   -3.2665   -7.0711   -9.0896 C   0  0  0  0  0  0
   -4.1088   -5.8643   -9.4789 C   0  0  0  0  0  0
   -1.9360   -7.0123   -9.7244 N   0  0  0  0  0  0
   -4.4944   -7.6496   -7.1259 O   0  0  0  0  0  0
   -3.5708   -9.2148   -5.1174 O   0  0  0  0  0  0
   -0.5261  -11.4986   -0.3611 O   0  0  0  0  0  0
   -1.8389  -10.3914    5.9927 O   0  0  0  0  0  0
   -2.5121   -9.5093    6.7763 C   0  0  0  0  0  0
   -3.7006   -9.2571    6.7185 O   0  0  0  0  0  0
   -1.5603   -8.9636    7.8048 C   0  0  0  0  0  0
   -1.6130   -9.7415    9.1294 C   0  0  0  0  0  0
   -2.3409   -8.9690   10.2371 C   0  0  0  0  0  0
   -1.4854   -7.8425   10.7685 C   0  0  0  0  0  0
   -1.0476   -7.8052   11.9133 O   0  0  0  0  0  0
   -1.2464   -6.8809    9.8646 O   0  0  0  0  0  0
   -2.3590  -11.0473    8.8224 C   0  0  0  0  0  0
   -3.5045  -11.2629    9.1882 O   0  0  0  0  0  0
   -1.6317  -11.9570    8.1596 O   0  0  0  0  0  0
    0.9903  -10.1959    4.5795 O   0  0  0  0  0  0
    2.1776  -10.7114    4.0869 C   0  0  0  0  0  0
    2.3968  -10.9494    2.9064 O   0  0  0  0  0  0
    3.2110  -10.9579    5.1941 C   0  0  0  0  0  0
    4.3045   -9.8570    5.3573 C   0  0  0  0  0  0
    4.9165   -9.6469    6.7544 C   0  0  0  0  0  0
    5.5903   -8.3136    6.9051 C   0  0  0  0  0  0
    5.3158   -7.4661    7.7435 O   0  0  0  0  0  0
    6.5755   -8.1327    6.0123 O   0  0  0  0  0  0
    5.4685   -9.9622    4.3642 C   0  0  0  0  0  0
    6.5350  -10.4705    4.6484 O   0  0  0  0  0  0
    5.1982   -9.5474    3.1087 O   0  0  0  0  0  0
   -2.0379   -6.6843  -10.6838 H   0  0  0  0  0  0
   -1.5720   -7.9641   -9.8086 H   0  0  0  0  0  0
   -4.7533   -8.4526   -7.6256 H   0  0  0  0  0  0
   -4.1794   -8.4877   -5.3440 H   0  0  0  0  0  0
   -0.6619  -12.3651    0.0577 H   0  0  0  0  0  0
   -0.6986   -6.1375   10.1821 H   0  0  0  0  0  0
   -2.0784  -12.8317    8.0407 H   0  0  0  0  0  0
    6.8182   -7.1835    6.0497 H   0  0  0  0  0  0
    5.9207   -9.6848    2.4566 H   0  0  0  0  0  0
  1  2  1  0  0  0
  2  3  1  0  0  0
  3  4  1  0  0  0
  4  5  1  0  0  0
  5  6  1  0  0  0
  5  7  1  0  0  0
  7  8  1  0  0  0
  7 39  1  0  0  0
  8  9  1  0  0  0
  8 27  1  0  0  0
  9 10  1  0  0  0
 10 11  1  0  0  0
 10 12  1  0  0  0
 12 13  1  0  0  0
 13 14  1  0  0  0
 13 26  1  0  0  0
 14 15  1  0  0  0
 15 16  1  0  0  0
 16 17  1  0  0  0
 17 18  1  0  0  0
 18 19  1  0  0  0
 18 25  1  0  0  0
 19 20  1  0  0  0
 20 21  1  0  0  0
 20 24  1  0  0  0
 21 22  1  0  0  0
 21 23  1  0  0  0
 23 51  1  0  0  0
 23 52  1  0  0  0
 24 53  1  0  0  0
 25 54  1  0  0  0
 26 55  1  0  0  0
 27 28  1  0  0  0
 28 29  2  0  0  0
 28 30  1  0  0  0
 30 31  1  0  0  0
 31 32  1  0  0  0
 31 36  1  0  0  0
 32 33  1  0  0  0
 33 34  2  0  0  0
 33 35  1  0  0  0
 35 56  1  0  0  0
 36 37  2  0  0  0
 36 38  1  0  0  0
 38 57  1  0  0  0
 39 40  1  0  0  0
 40 41  2  0  0  0
 40 42  1  0  0  0
 42 43  1  0  0  0
 43 44  1  0  0  0
 43 48  1  0  0  0
 44 45  1  0  0  0
 45 46  2  0  0  0
 45 47  1  0  0  0
 47 58  1  0  0  0
 48 49  2  0  0  0
 48 50  1  0  0  0
 50 59  1  0  0  0
M  END
>  <AUTHOR>
    GENERATED BY OPEN BABEL 2.4.1

>  <CHROM.1>
-175.74572229,58.88885949,98.71263505,-98.94136765,-75.97321205,56.09868463
-48.27015138,155.85561270,-81.04156128,173.40242645,59.01903162,-154.81826205
58.77147835,-62.53938061,-143.74348602,-27.16407515,-167.95836059,-172.81217442
175.32593771,-177.74672206,-179.91532866,-65.23748930,-171.74349913,75.24690680
-94.18830324,-105.57190694,-74.37121291,-106.54469594,-114.35539570,179.75017905
174.13758342,49.01144635,-99.38068537,151.15075129,-160.93709020,-98.93310911
122.28785424,167.71401894,-175.13362787,-0.23955029,-9.85957983,2.80115174
-1.32320286,0.11534636,-1.48264599

>  <COMPND>
    UNNAMED

>  <MASTER>
        0    0    0    0    0    0    0    0  109    0  109    0

>  <Name>
FB1.pdb

>  <RI>
0

>  <Rbt.Current_Directory>
/cluster/tossine/F10/p3/0_clust01/stat

>  <Rbt.Executable>
rbdock/0.1.0

>  <Rbt.Library>
librxdock.so/0.1.0

>  <Rbt.Parameter_File>
/cluster/rxdock/data/scripts/dock.prm

>  <Rbt.Receptor>
rx_3.prm

>  <SCORE>
28.6164

>  <SCORE.INTER>
1.81813

>  <SCORE.INTER.CONST>
1

>  <SCORE.INTER.POLAR>
-1.3279

>  <SCORE.INTER.REPUL>
0.360869

>  <SCORE.INTER.ROT>
32

>  <SCORE.INTER.VDW>
-32.8714

>  <SCORE.INTER.norm>
0.0363625

>  <SCORE.INTRA>
22.1037

>  <SCORE.INTRA.DIHEDRAL>
34.6382

>  <SCORE.INTRA.DIHEDRAL.0>
47.3121

>  <SCORE.INTRA.POLAR>
1.09613

>  <SCORE.INTRA.POLAR.0>
-1.47808

>  <SCORE.INTRA.REPUL>
0

>  <SCORE.INTRA.REPUL.0>
0

>  <SCORE.INTRA.VDW>
1.05781

>  <SCORE.INTRA.VDW.0>
-2.78316

>  <SCORE.INTRA.norm>
0.442075

>  <SCORE.RESTR>
4.69457

>  <SCORE.RESTR.CAVITY>
4.69457

>  <SCORE.RESTR.norm>
0.0938915

>  <SCORE.SYSTEM>
0

>  <SCORE.SYSTEM.CONST>
0

>  <SCORE.SYSTEM.DIHEDRAL>
0

>  <SCORE.SYSTEM.norm>
0

>  <SCORE.heavy>
50

>  <SCORE.norm>
0.572329

$$$$
