FB1.pdb
  RxDock  10072011583D
librxdock.so/0.1.0
 59 58  0  0  0  0  0  0  0  0999 V2000
    2.9021  -10.3699   -0.0997 C   0  0  0  0  0  0
    2.8282  -11.0521    1.2644 C   0  0  0  0  0  0
    1.3989  -11.5137    1.5935 C   0  0  0  0  0  0
    1.3394  -12.6001    2.6962 C   0  0  0  0  0  0
    0.0637  -12.5484    3.6075 C   0  0  0  0  0  0
    0.0465  -13.8171    4.4911 C   0  0  0  0  0  0
   -0.0271  -11.2368    4.4960 C   0  0  0  0  0  0
   -1.4088  -10.9739    5.2627 C   0  0  0  0  0  0
   -2.8530  -11.3038    4.6850 C   0  0  0  0  0  0
   -4.0072  -11.6137    5.8222 C   0  0  0  0  0  0
   -4.1993  -10.3592    6.6728 C   0  0  0  0  0  0
   -5.4206  -12.1089    5.2726 C   0  0  0  0  0  0
   -6.0022  -11.7461    3.8068 C   0  0  0  0  0  0
   -6.4108  -10.2882    3.4023 C   0  0  0  0  0  0
   -5.2514   -9.2358    3.0900 C   0  0  0  0  0  0
   -5.4575   -7.9060    2.2630 C   0  0  0  0  0  0
   -4.2222   -7.0610    1.8538 C   0  0  0  0  0  0
   -4.1315   -6.6320    0.3383 C   0  0  0  0  0  0
   -5.3383   -5.8720   -0.2261 C   0  0  0  0  0  0
   -5.7264   -6.1049   -1.7139 C   0  0  0  0  0  0
   -6.3091   -4.9426   -2.5710 C   0  0  0  0  0  0
   -7.1613   -3.9187   -1.8342 C   0  0  0  0  0  0
   -5.2461   -4.2806   -3.3508 N   0  0  0  0  0  0
   -4.4820   -6.4652   -2.3663 O   0  0  0  0  0  0
   -2.9655   -5.8166    0.1790 O   0  0  0  0  0  0
   -4.9535  -12.1091    2.8929 O   0  0  0  0  0  0
   -1.3359  -11.7295    6.5022 O   0  0  0  0  0  0
   -1.5746  -11.0499    7.6539 C   0  0  0  0  0  0
   -2.1473  -11.4795    8.6372 O   0  0  0  0  0  0
   -0.9207   -9.6994    7.5539 C   0  0  0  0  0  0
   -1.9413   -8.5576    7.4235 C   0  0  0  0  0  0
   -1.5747   -7.3396    8.2812 C   0  0  0  0  0  0
   -1.9496   -7.5594    9.7285 C   0  0  0  0  0  0
   -1.1339   -7.8035   10.6109 O   0  0  0  0  0  0
   -3.2670   -7.4603    9.9601 O   0  0  0  0  0  0
   -1.9530   -8.1698    5.9384 C   0  0  0  0  0  0
   -2.9808   -8.0423    5.2905 O   0  0  0  0  0  0
   -0.7366   -8.0296    5.3938 O   0  0  0  0  0  0
    1.1407  -11.1228    5.4032 O   0  0  0  0  0  0
    1.9143   -9.9758    5.3407 C   0  0  0  0  0  0
    1.4913   -8.8657    5.0456 O   0  0  0  0  0  0
    3.3850  -10.2439    5.6867 C   0  0  0  0  0  0
    4.1646  -11.1446    4.6789 C   0  0  0  0  0  0
    5.6698  -10.8825    4.4892 C   0  0  0  0  0  0
    5.9679   -9.4870    4.0220 C   0  0  0  0  0  0
    5.9089   -9.0940    2.8650 O   0  0  0  0  0  0
    6.3012   -8.6682    5.0314 O   0  0  0  0  0  0
    3.9923  -12.6517    4.9054 C   0  0  0  0  0  0
    3.5470  -13.1179    5.9354 O   0  0  0  0  0  0
    4.2685  -13.4329    3.8402 O   0  0  0  0  0  0
   -4.4626   -4.0683   -2.7346 H   0  0  0  0  0  0
   -5.5895   -3.3697   -3.6636 H   0  0  0  0  0  0
   -4.3443   -7.4073   -2.1317 H   0  0  0  0  0  0
   -3.1453   -5.1620   -0.5208 H   0  0  0  0  0  0
   -5.1572  -11.7133    2.0290 H   0  0  0  0  0  0
   -3.7974   -7.1246    9.2122 H   0  0  0  0  0  0
   -0.7289   -8.0188    4.4046 H   0  0  0  0  0  0
    6.4365   -7.7796    4.6397 H   0  0  0  0  0  0
    4.5379  -12.9526    3.0260 H   0  0  0  0  0  0
  1  2  1  0  0  0
  2  3  1  0  0  0
  3  4  1  0  0  0
  4  5  1  0  0  0
  5  6  1  0  0  0
  5  7  1  0  0  0
  7  8  1  0  0  0
  7 39  1  0  0  0
  8  9  1  0  0  0
  8 27  1  0  0  0
  9 10  1  0  0  0
 10 11  1  0  0  0
 10 12  1  0  0  0
 12 13  1  0  0  0
 13 14  1  0  0  0
 13 26  1  0  0  0
 14 15  1  0  0  0
 15 16  1  0  0  0
 16 17  1  0  0  0
 17 18  1  0  0  0
 18 19  1  0  0  0
 18 25  1  0  0  0
 19 20  1  0  0  0
 20 21  1  0  0  0
 20 24  1  0  0  0
 21 22  1  0  0  0
 21 23  1  0  0  0
 23 51  1  0  0  0
 23 52  1  0  0  0
 24 53  1  0  0  0
 25 54  1  0  0  0
 26 55  1  0  0  0
 27 28  1  0  0  0
 28 29  2  0  0  0
 28 30  1  0  0  0
 30 31  1  0  0  0
 31 32  1  0  0  0
 31 36  1  0  0  0
 32 33  1  0  0  0
 33 34  2  0  0  0
 33 35  1  0  0  0
 35 56  1  0  0  0
 36 37  2  0  0  0
 36 38  1  0  0  0
 38 57  1  0  0  0
 39 40  1  0  0  0
 40 41  2  0  0  0
 40 42  1  0  0  0
 42 43  1  0  0  0
 43 44  1  0  0  0
 43 48  1  0  0  0
 44 45  1  0  0  0
 45 46  2  0  0  0
 45 47  1  0  0  0
 47 58  1  0  0  0
 48 49  2  0  0  0
 48 50  1  0  0  0
 50 59  1  0  0  0
M  END
>  <AUTHOR>
    GENERATED BY OPEN BABEL 2.4.1

>  <CHROM.1>
160.58754451,147.62425406,170.98873077,169.66037438,-36.82449155,123.73605042
152.77238121,126.80794609,62.76377257,-26.98018698,-67.31075658,75.16491959
-166.17224943,160.36799690,-171.48094367,130.36135012,55.20710175,-145.93612137
-147.85813667,-145.61857530,-32.53317192,78.68254079,-48.77290133,143.94294074
109.67301031,137.86993708,-79.09289577,131.24600523,105.20391722,-9.23463510
164.57693957,30.90999703,66.29026984,148.15522599,-58.88668617,-15.71917969
-82.02850231,-177.48280238,-0.90980721,-1.12341639,-9.52008244,4.01032823
-0.64242432,0.28587089,-1.24572816

>  <COMPND>
    UNNAMED

>  <MASTER>
        0    0    0    0    0    0    0    0  109    0  109    0

>  <Name>
FB1.pdb

>  <RI>
0

>  <Rbt.Current_Directory>
/cluster/tossine/F10/p3/0_clust01/stat

>  <Rbt.Executable>
rbdock/0.1.0

>  <Rbt.Library>
librxdock.so/0.1.0

>  <Rbt.Parameter_File>
/cluster/rxdock/data/scripts/dock.prm

>  <Rbt.Receptor>
rx_3.prm

>  <SCORE>
49.718

>  <SCORE.INTER>
15.0924

>  <SCORE.INTER.CONST>
1

>  <SCORE.INTER.POLAR>
-1.46103

>  <SCORE.INTER.REPUL>
0.916139

>  <SCORE.INTER.ROT>
32

>  <SCORE.INTER.VDW>
-21.9208

>  <SCORE.INTER.norm>
0.301847

>  <SCORE.INTRA>
28.313

>  <SCORE.INTRA.DIHEDRAL>
39.6094

>  <SCORE.INTRA.DIHEDRAL.0>
47.3121

>  <SCORE.INTRA.POLAR>
1.47808

>  <SCORE.INTRA.POLAR.0>
-1.47808

>  <SCORE.INTRA.REPUL>
0.163641

>  <SCORE.INTRA.REPUL.0>
0

>  <SCORE.INTRA.VDW>
2.66461

>  <SCORE.INTRA.VDW.0>
-2.78316

>  <SCORE.INTRA.norm>
0.56626

>  <SCORE.RESTR>
6.31267

>  <SCORE.RESTR.CAVITY>
6.31267

>  <SCORE.RESTR.norm>
0.126253

>  <SCORE.SYSTEM>
0

>  <SCORE.SYSTEM.CONST>
0

>  <SCORE.SYSTEM.DIHEDRAL>
0

>  <SCORE.SYSTEM.norm>
0

>  <SCORE.heavy>
50

>  <SCORE.norm>
0.994361

$$$$
