FB1.pdb
  RxDock  10072011573D
librxdock.so/0.1.0
 59 58  0  0  0  0  0  0  0  0999 V2000
   -5.2621  -12.3698    5.9372 C   0  0  0  0  0  0
   -4.0808  -12.6107    5.0003 C   0  0  0  0  0  0
   -3.2247  -13.8030    5.4584 C   0  0  0  0  0  0
   -1.8550  -13.8918    4.7402 C   0  0  0  0  0  0
   -0.6220  -13.4678    5.6123 C   0  0  0  0  0  0
    0.4600  -14.5654    5.4895 C   0  0  0  0  0  0
   -0.0335  -12.0453    5.2276 C   0  0  0  0  0  0
    1.0496  -12.0029    4.0480 C   0  0  0  0  0  0
    0.8974  -11.1814    2.6952 C   0  0  0  0  0  0
   -0.3731  -11.6301    1.7435 C   0  0  0  0  0  0
   -1.5873  -10.7850    2.1252 C   0  0  0  0  0  0
   -0.1361  -11.5450    0.1682 C   0  0  0  0  0  0
   -0.0904  -10.1612   -0.6693 C   0  0  0  0  0  0
   -1.0153   -9.8971   -1.9066 C   0  0  0  0  0  0
   -0.6729  -10.6365   -3.2797 C   0  0  0  0  0  0
    0.6923  -10.4780   -4.0579 C   0  0  0  0  0  0
    0.9162  -11.2637   -5.3770 C   0  0  0  0  0  0
    0.3706  -10.5951   -6.6978 C   0  0  0  0  0  0
    0.8852   -9.1838   -7.0074 C   0  0  0  0  0  0
    0.2882   -8.4334   -8.2316 C   0  0  0  0  0  0
    0.9187   -8.5993   -9.6460 C   0  0  0  0  0  0
    2.2022   -7.8247   -9.9107 C   0  0  0  0  0  0
    1.0846  -10.0259   -9.9833 N   0  0  0  0  0  0
   -1.0605   -8.9517   -8.3586 O   0  0  0  0  0  0
    0.7028  -11.4513   -7.7960 O   0  0  0  0  0  0
   -0.4370   -9.1414    0.2827 O   0  0  0  0  0  0
    2.2762  -11.4962    4.6407 O   0  0  0  0  0  0
    2.2914  -10.1870    5.0027 C   0  0  0  0  0  0
    1.3285   -9.4464    5.0645 O   0  0  0  0  0  0
    3.6908   -9.8238    5.4164 C   0  0  0  0  0  0
    4.7246  -10.8789    4.9914 C   0  0  0  0  0  0
    4.6825  -11.1714    3.4861 C   0  0  0  0  0  0
    4.6559   -9.8919    2.6827 C   0  0  0  0  0  0
    5.5165   -9.0221    2.7636 O   0  0  0  0  0  0
    3.5966   -9.7959    1.8656 O   0  0  0  0  0  0
    6.0953  -10.3056    5.3770 C   0  0  0  0  0  0
    6.2304   -9.2812    6.0287 O   0  0  0  0  0  0
    7.1385  -10.9962    4.8967 O   0  0  0  0  0  0
   -1.1183  -11.0554    5.0198 O   0  0  0  0  0  0
   -2.0308  -10.8533    6.0419 C   0  0  0  0  0  0
   -2.0434  -11.4741    7.0969 O   0  0  0  0  0  0
   -3.0438   -9.7496    5.7105 C   0  0  0  0  0  0
   -2.4372   -8.3998    5.2158 C   0  0  0  0  0  0
   -3.4082   -7.2818    4.7944 C   0  0  0  0  0  0
   -3.7725   -7.3390    3.3389 C   0  0  0  0  0  0
   -3.0041   -7.5888    2.4203 O   0  0  0  0  0  0
   -5.0756   -7.0999    3.1262 O   0  0  0  0  0  0
   -1.4122   -7.7738    6.1696 C   0  0  0  0  0  0
   -1.5197   -7.8228    7.3791 O   0  0  0  0  0  0
   -0.3162   -7.2514    5.5805 O   0  0  0  0  0  0
    0.5861  -10.5914   -9.2977 H   0  0  0  0  0  0
    2.0689  -10.2769   -9.8662 H   0  0  0  0  0  0
   -1.4978   -8.3481   -8.9956 H   0  0  0  0  0  0
    1.6656  -11.6039   -7.7825 H   0  0  0  0  0  0
   -1.4056   -9.1170    0.3579 H   0  0  0  0  0  0
    3.5343   -8.9626    1.3604 H   0  0  0  0  0  0
    6.9128  -11.8986    4.5597 H   0  0  0  0  0  0
   -5.2091   -7.1130    2.1550 H   0  0  0  0  0  0
    0.3829   -7.9006    5.3440 H   0  0  0  0  0  0
  1  2  1  0  0  0
  2  3  1  0  0  0
  3  4  1  0  0  0
  4  5  1  0  0  0
  5  6  1  0  0  0
  5  7  1  0  0  0
  7  8  1  0  0  0
  7 39  1  0  0  0
  8  9  1  0  0  0
  8 27  1  0  0  0
  9 10  1  0  0  0
 10 11  1  0  0  0
 10 12  1  0  0  0
 12 13  1  0  0  0
 13 14  1  0  0  0
 13 26  1  0  0  0
 14 15  1  0  0  0
 15 16  1  0  0  0
 16 17  1  0  0  0
 17 18  1  0  0  0
 18 19  1  0  0  0
 18 25  1  0  0  0
 19 20  1  0  0  0
 20 21  1  0  0  0
 20 24  1  0  0  0
 21 22  1  0  0  0
 21 23  1  0  0  0
 23 51  1  0  0  0
 23 52  1  0  0  0
 24 53  1  0  0  0
 25 54  1  0  0  0
 26 55  1  0  0  0
 27 28  1  0  0  0
 28 29  2  0  0  0
 28 30  1  0  0  0
 30 31  1  0  0  0
 31 32  1  0  0  0
 31 36  1  0  0  0
 32 33  1  0  0  0
 33 34  2  0  0  0
 33 35  1  0  0  0
 35 56  1  0  0  0
 36 37  2  0  0  0
 36 38  1  0  0  0
 38 57  1  0  0  0
 39 40  1  0  0  0
 40 41  2  0  0  0
 40 42  1  0  0  0
 42 43  1  0  0  0
 43 44  1  0  0  0
 43 48  1  0  0  0
 44 45  1  0  0  0
 45 46  2  0  0  0
 45 47  1  0  0  0
 47 58  1  0  0  0
 48 49  2  0  0  0
 48 50  1  0  0  0
 50 59  1  0  0  0
M  END
>  <AUTHOR>
    GENERATED BY OPEN BABEL 2.4.1

>  <CHROM.1>
-166.97306833,105.73556357,130.91850140,-86.38415824,120.79607664,55.52383576
-62.05188029,-70.17706189,90.97757288,-74.15121028,-124.93400759,-74.45909558
-82.10234384,-59.34028645,179.22645471,85.26317809,56.37574036,-174.93859805
-55.20403013,-88.50192185,-77.46609860,168.06160391,10.95021285,11.60878127
14.15217049,55.01009428,47.26091561,7.46281415,57.38338569,177.62518491,-14.92322813
-3.07674769,-50.57480360,176.69281983,-89.75348157,-36.88046587,-40.71554741
177.20893715,-81.03838976,0.26958291,-10.22463281,1.55067763,1.62938146,-0.05507719
1.64835704

>  <COMPND>
    UNNAMED

>  <MASTER>
        0    0    0    0    0    0    0    0  109    0  109    0

>  <Name>
FB1.pdb

>  <RI>
0

>  <Rbt.Current_Directory>
/cluster/tossine/F10/p3/0_clust01/stat

>  <Rbt.Executable>
rbdock/0.1.0

>  <Rbt.Library>
librxdock.so/0.1.0

>  <Rbt.Parameter_File>
/cluster/rxdock/data/scripts/dock.prm

>  <Rbt.Receptor>
rx_3.prm

>  <SCORE>
49.4774

>  <SCORE.INTER>
21.1089

>  <SCORE.INTER.CONST>
1

>  <SCORE.INTER.POLAR>
-0.8

>  <SCORE.INTER.REPUL>
0.523425

>  <SCORE.INTER.ROT>
32

>  <SCORE.INTER.VDW>
-16.1883

>  <SCORE.INTER.norm>
0.422177

>  <SCORE.INTRA>
20.9509

>  <SCORE.INTRA.DIHEDRAL>
36.6991

>  <SCORE.INTRA.DIHEDRAL.0>
47.3121

>  <SCORE.INTRA.POLAR>
-0.358599

>  <SCORE.INTRA.POLAR.0>
-1.47808

>  <SCORE.INTRA.REPUL>
0.000134712

>  <SCORE.INTRA.REPUL.0>
0

>  <SCORE.INTRA.VDW>
3.81991

>  <SCORE.INTRA.VDW.0>
-2.78316

>  <SCORE.INTRA.norm>
0.419018

>  <SCORE.RESTR>
7.41763

>  <SCORE.RESTR.CAVITY>
7.41763

>  <SCORE.RESTR.norm>
0.148353

>  <SCORE.SYSTEM>
0

>  <SCORE.SYSTEM.CONST>
0

>  <SCORE.SYSTEM.DIHEDRAL>
0

>  <SCORE.SYSTEM.norm>
0

>  <SCORE.heavy>
50

>  <SCORE.norm>
0.989548

$$$$
