FB1.pdb
  RxDock  10072011593D
librxdock.so/0.1.0
 59 58  0  0  0  0  0  0  0  0999 V2000
   -1.9525   -9.9716   -3.3866 C   0  0  0  0  0  0
   -0.5186  -10.4546   -3.1820 C   0  0  0  0  0  0
   -0.4265  -11.5083   -2.0659 C   0  0  0  0  0  0
    0.0101  -10.9238   -0.6993 C   0  0  0  0  0  0
    0.1458  -11.9750    0.4569 C   0  0  0  0  0  0
    1.2400  -12.9932    0.0614 C   0  0  0  0  0  0
    0.4595  -11.3251    1.8701 C   0  0  0  0  0  0
   -0.7286  -11.3163    2.9446 C   0  0  0  0  0  0
   -0.5770  -10.9049    4.4730 C   0  0  0  0  0  0
   -1.6149  -11.6624    5.5075 C   0  0  0  0  0  0
   -0.7984  -12.5245    6.4689 C   0  0  0  0  0  0
   -2.5950  -10.7166    6.3379 C   0  0  0  0  0  0
   -2.1011   -9.6531    7.4531 C   0  0  0  0  0  0
   -2.9624   -8.4120    7.8700 C   0  0  0  0  0  0
   -3.0709   -8.0523    9.4218 C   0  0  0  0  0  0
   -1.9553   -7.2869   10.2368 C   0  0  0  0  0  0
   -1.4944   -7.8432   11.6100 C   0  0  0  0  0  0
   -0.2396   -7.1485   12.2674 C   0  0  0  0  0  0
   -0.3666   -5.6471   12.5538 C   0  0  0  0  0  0
    0.1003   -5.1189   13.9399 C   0  0  0  0  0  0
    1.6137   -4.8990   14.2342 C   0  0  0  0  0  0
    2.5713   -5.9413   13.6738 C   0  0  0  0  0  0
    2.0316   -3.5377   13.8489 N   0  0  0  0  0  0
   -0.4992   -3.8029   14.0528 O   0  0  0  0  0  0
    0.0451   -7.8237   13.4973 O   0  0  0  0  0  0
   -1.9471  -10.4243    8.6566 O   0  0  0  0  0  0
   -1.7386  -10.4087    2.4262 O   0  0  0  0  0  0
   -3.0340  -10.8050    2.5265 C   0  0  0  0  0  0
   -3.4477  -11.7583    3.1587 O   0  0  0  0  0  0
   -3.8949   -9.8055    1.8047 C   0  0  0  0  0  0
   -3.6358   -8.3620    2.2648 C   0  0  0  0  0  0
   -2.9337   -8.2954    3.6271 C   0  0  0  0  0  0
   -3.0835   -6.9275    4.2513 C   0  0  0  0  0  0
   -2.6907   -5.8936    3.7217 O   0  0  0  0  0  0
   -3.6920   -6.9491    5.4464 O   0  0  0  0  0  0
   -2.7483   -7.7279    1.1849 C   0  0  0  0  0  0
   -3.0975   -6.7694    0.5127 O   0  0  0  0  0  0
   -1.5722   -8.3442    1.0036 O   0  0  0  0  0  0
    1.7182  -11.8644    2.4399 O   0  0  0  0  0  0
    2.4498  -11.0616    3.2991 C   0  0  0  0  0  0
    1.9993  -10.0980    3.9049 O   0  0  0  0  0  0
    3.9117  -11.5127    3.4168 C   0  0  0  0  0  0
    4.9750  -10.5162    2.8592 C   0  0  0  0  0  0
    4.6276   -9.7263    1.5842 C   0  0  0  0  0  0
    3.9964  -10.5776    0.5205 C   0  0  0  0  0  0
    4.3318  -11.7165    0.2258 O   0  0  0  0  0  0
    2.9756   -9.9595   -0.0927 O   0  0  0  0  0  0
    5.5045   -9.5079    3.8865 C   0  0  0  0  0  0
    6.0927   -8.4921    3.5721 O   0  0  0  0  0  0
    5.1813   -9.7658    5.1712 O   0  0  0  0  0  0
    2.8778   -3.2907   14.3602 H   0  0  0  0  0  0
    1.3244   -2.8746   14.1739 H   0  0  0  0  0  0
   -1.4652   -3.9686   14.0242 H   0  0  0  0  0  0
   -0.7201   -7.7104   14.0907 H   0  0  0  0  0  0
   -1.4411   -9.8914    9.2925 H   0  0  0  0  0  0
   -3.9025   -7.8383    5.7906 H   0  0  0  0  0  0
   -1.3400   -8.9997    1.7072 H   0  0  0  0  0  0
    2.7943   -9.1420    0.4174 H   0  0  0  0  0  0
    5.4536   -9.0781    5.8186 H   0  0  0  0  0  0
  1  2  1  0  0  0
  2  3  1  0  0  0
  3  4  1  0  0  0
  4  5  1  0  0  0
  5  6  1  0  0  0
  5  7  1  0  0  0
  7  8  1  0  0  0
  7 39  1  0  0  0
  8  9  1  0  0  0
  8 27  1  0  0  0
  9 10  1  0  0  0
 10 11  1  0  0  0
 10 12  1  0  0  0
 12 13  1  0  0  0
 13 14  1  0  0  0
 13 26  1  0  0  0
 14 15  1  0  0  0
 15 16  1  0  0  0
 16 17  1  0  0  0
 17 18  1  0  0  0
 18 19  1  0  0  0
 18 25  1  0  0  0
 19 20  1  0  0  0
 20 21  1  0  0  0
 20 24  1  0  0  0
 21 22  1  0  0  0
 21 23  1  0  0  0
 23 51  1  0  0  0
 23 52  1  0  0  0
 24 53  1  0  0  0
 25 54  1  0  0  0
 26 55  1  0  0  0
 27 28  1  0  0  0
 28 29  2  0  0  0
 28 30  1  0  0  0
 30 31  1  0  0  0
 31 32  1  0  0  0
 31 36  1  0  0  0
 32 33  1  0  0  0
 33 34  2  0  0  0
 33 35  1  0  0  0
 35 56  1  0  0  0
 36 37  2  0  0  0
 36 38  1  0  0  0
 38 57  1  0  0  0
 39 40  1  0  0  0
 40 41  2  0  0  0
 40 42  1  0  0  0
 42 43  1  0  0  0
 43 44  1  0  0  0
 43 48  1  0  0  0
 44 45  1  0  0  0
 45 46  2  0  0  0
 45 47  1  0  0  0
 47 58  1  0  0  0
 48 49  2  0  0  0
 48 50  1  0  0  0
 50 59  1  0  0  0
M  END
>  <AUTHOR>
    GENERATED BY OPEN BABEL 2.4.1

>  <CHROM.1>
-97.82069467,-178.71351048,61.77497818,107.49797771,171.03667704,151.76083510
-149.89012019,137.25768866,115.91055148,-65.44327012,157.35581794,136.92201437
165.75436188,79.38728329,-132.06074549,171.50588541,59.38947652,134.13867407
-62.61519234,78.75274668,-39.16201522,61.76457267,158.11961685,10.24608870
-52.41469997,-18.85999580,-161.91492560,117.65342552,-59.02530651,4.16482311
-12.45770263,20.12694861,114.34310881,-37.21426295,-44.56464686,-163.03501677
-40.58374700,-9.37814909,-174.87176159,-0.05752292,-9.13902646,4.94385487
1.52648431,0.13617310,-1.91656414

>  <COMPND>
    UNNAMED

>  <MASTER>
        0    0    0    0    0    0    0    0  109    0  109    0

>  <Name>
FB1.pdb

>  <RI>
0

>  <Rbt.Current_Directory>
/cluster/tossine/F10/p3/0_clust01/stat

>  <Rbt.Executable>
rbdock/0.1.0

>  <Rbt.Library>
librxdock.so/0.1.0

>  <Rbt.Parameter_File>
/cluster/rxdock/data/scripts/dock.prm

>  <Rbt.Receptor>
rx_3.prm

>  <SCORE>
38.6015

>  <SCORE.INTER>
5.352

>  <SCORE.INTER.CONST>
1

>  <SCORE.INTER.POLAR>
-1.99433

>  <SCORE.INTER.REPUL>
0.828188

>  <SCORE.INTER.ROT>
32

>  <SCORE.INTER.VDW>
-29.4082

>  <SCORE.INTER.norm>
0.10704

>  <SCORE.INTRA>
21.9033

>  <SCORE.INTRA.DIHEDRAL>
29.4068

>  <SCORE.INTRA.DIHEDRAL.0>
47.3121

>  <SCORE.INTRA.POLAR>
0.456026

>  <SCORE.INTRA.POLAR.0>
-1.47808

>  <SCORE.INTRA.REPUL>
0

>  <SCORE.INTRA.REPUL.0>
0

>  <SCORE.INTRA.VDW>
5.64936

>  <SCORE.INTRA.VDW.0>
-2.78316

>  <SCORE.INTRA.norm>
0.438065

>  <SCORE.RESTR>
11.3462

>  <SCORE.RESTR.CAVITY>
11.3462

>  <SCORE.RESTR.norm>
0.226925

>  <SCORE.SYSTEM>
0

>  <SCORE.SYSTEM.CONST>
0

>  <SCORE.SYSTEM.DIHEDRAL>
0

>  <SCORE.SYSTEM.norm>
0

>  <SCORE.heavy>
50

>  <SCORE.norm>
0.77203

$$$$
