FB1.pdb
  RxDock  10072012093D
librxdock.so/0.1.0
 59 58  0  0  0  0  0  0  0  0999 V2000
   -6.0001  -11.7127    4.1877 C   0  0  0  0  0  0
   -5.5972  -10.4136    3.4939 C   0  0  0  0  0  0
   -4.1251  -10.4377    3.0506 C   0  0  0  0  0  0
   -3.5736   -9.0426    2.6643 C   0  0  0  0  0  0
   -2.7992   -8.9916    1.3012 C   0  0  0  0  0  0
   -2.6853   -7.5134    0.8625 C   0  0  0  0  0  0
   -1.3698   -9.6781    1.3589 C   0  0  0  0  0  0
   -0.5819   -9.5981    2.7514 C   0  0  0  0  0  0
   -1.2438   -9.7619    4.1878 C   0  0  0  0  0  0
   -1.1502   -8.4302    5.1570 C   0  0  0  0  0  0
   -2.1091   -7.3698    4.6183 C   0  0  0  0  0  0
   -1.4334   -8.6687    6.7087 C   0  0  0  0  0  0
   -2.7152   -9.4712    7.2845 C   0  0  0  0  0  0
   -3.2449   -9.2708    8.7458 C   0  0  0  0  0  0
   -2.4011   -8.3464    9.7371 C   0  0  0  0  0  0
   -1.9246   -8.7898   11.1762 C   0  0  0  0  0  0
   -1.1076   -7.8012   12.0495 C   0  0  0  0  0  0
   -1.1530   -6.2821   11.6258 C   0  0  0  0  0  0
   -0.6265   -5.2738   12.6546 C   0  0  0  0  0  0
    0.8915   -5.2887   12.9917 C   0  0  0  0  0  0
    1.4674   -6.3236   14.0030 C   0  0  0  0  0  0
    0.5155   -7.4154   14.4713 C   0  0  0  0  0  0
    2.7283   -6.9026   13.5018 N   0  0  0  0  0  0
    1.5447   -5.5910   11.7323 O   0  0  0  0  0  0
   -0.3966   -6.1374   10.4189 O   0  0  0  0  0  0
   -3.8069   -9.0835    6.4333 O   0  0  0  0  0  0
    0.4348  -10.6355    2.7033 O   0  0  0  0  0  0
    1.3354  -10.6642    3.7198 C   0  0  0  0  0  0
    1.1224  -11.0319    4.8595 O   0  0  0  0  0  0
    2.6783  -10.2592    3.1776 C   0  0  0  0  0  0
    3.6596  -11.4389    3.0896 C   0  0  0  0  0  0
    4.8880  -11.1198    2.2278 C   0  0  0  0  0  0
    5.1702   -9.6354    2.2095 C   0  0  0  0  0  0
    5.8572   -9.0652    3.0501 O   0  0  0  0  0  0
    4.5967   -8.9951    1.1800 O   0  0  0  0  0  0
    4.0926  -11.7360    4.5319 C   0  0  0  0  0  0
    4.3886  -10.8622    5.3328 O   0  0  0  0  0  0
    4.1679  -13.0406    4.8292 O   0  0  0  0  0  0
   -1.4188  -11.0624    0.8286 O   0  0  0  0  0  0
   -1.1993  -11.2579   -0.5248 C   0  0  0  0  0  0
   -1.3933  -12.3117   -1.1167 O   0  0  0  0  0  0
   -0.6784   -9.9933   -1.2204 C   0  0  0  0  0  0
   -0.2715  -10.1623   -2.7172 C   0  0  0  0  0  0
    0.9523  -11.0392   -3.0395 C   0  0  0  0  0  0
    1.6137  -10.6694   -4.3358 C   0  0  0  0  0  0
    1.3152  -11.1057   -5.4390 O   0  0  0  0  0  0
    2.5915   -9.7650   -4.1733 O   0  0  0  0  0  0
   -1.4094  -10.6161   -3.6400 C   0  0  0  0  0  0
   -1.3742  -11.6545   -4.2702 O   0  0  0  0  0  0
   -2.5108   -9.8363   -3.6283 O   0  0  0  0  0  0
    3.0545   -7.6111   14.1576 H   0  0  0  0  0  0
    3.4493   -6.1778   13.5168 H   0  0  0  0  0  0
    2.4836   -5.3481   11.8769 H   0  0  0  0  0  0
    0.5412   -6.3056   10.6257 H   0  0  0  0  0  0
   -4.0202   -8.1544    6.6222 H   0  0  0  0  0  0
    5.1703   -8.8608    0.4013 H   0  0  0  0  0  0
    3.7813  -13.6403    4.1439 H   0  0  0  0  0  0
    2.8425   -9.4580   -5.0700 H   0  0  0  0  0  0
   -2.4409   -9.0195   -3.0859 H   0  0  0  0  0  0
  1  2  1  0  0  0
  2  3  1  0  0  0
  3  4  1  0  0  0
  4  5  1  0  0  0
  5  6  1  0  0  0
  5  7  1  0  0  0
  7  8  1  0  0  0
  7 39  1  0  0  0
  8  9  1  0  0  0
  8 27  1  0  0  0
  9 10  1  0  0  0
 10 11  1  0  0  0
 10 12  1  0  0  0
 12 13  1  0  0  0
 13 14  1  0  0  0
 13 26  1  0  0  0
 14 15  1  0  0  0
 15 16  1  0  0  0
 16 17  1  0  0  0
 17 18  1  0  0  0
 18 19  1  0  0  0
 18 25  1  0  0  0
 19 20  1  0  0  0
 20 21  1  0  0  0
 20 24  1  0  0  0
 21 22  1  0  0  0
 21 23  1  0  0  0
 23 51  1  0  0  0
 23 52  1  0  0  0
 24 53  1  0  0  0
 25 54  1  0  0  0
 26 55  1  0  0  0
 27 28  1  0  0  0
 28 29  2  0  0  0
 28 30  1  0  0  0
 30 31  1  0  0  0
 31 32  1  0  0  0
 31 36  1  0  0  0
 32 33  1  0  0  0
 33 34  2  0  0  0
 33 35  1  0  0  0
 35 56  1  0  0  0
 36 37  2  0  0  0
 36 38  1  0  0  0
 38 57  1  0  0  0
 39 40  1  0  0  0
 40 41  2  0  0  0
 40 42  1  0  0  0
 42 43  1  0  0  0
 43 44  1  0  0  0
 43 48  1  0  0  0
 44 45  1  0  0  0
 45 46  2  0  0  0
 45 47  1  0  0  0
 47 58  1  0  0  0
 48 49  2  0  0  0
 48 50  1  0  0  0
 50 59  1  0  0  0
M  END
>  <AUTHOR>
    GENERATED BY OPEN BABEL 2.4.1

>  <CHROM.1>
-165.79971534,-131.83208878,163.53912224,-32.19101218,40.03741521,89.75766774
-116.88683399,172.73309336,72.13596093,-49.42514706,-157.82070312,-5.98115693
-70.24725000,-127.67426774,179.98388061,17.05875013,166.30155126,67.22374388
-67.42071719,-81.26270856,8.39843476,164.13308753,-176.92874386,73.30509806
-108.30466741,165.71371929,26.25004464,-43.75427397,87.10681121,-95.84887716
-10.57046669,-169.34663547,174.24266291,-67.16817701,-154.39947894,-119.13391996
-87.70744146,-169.28769030,4.78470369,-0.05689790,-9.42513876,4.09194573
1.55537494,0.05745240,-1.82215179

>  <COMPND>
    UNNAMED

>  <MASTER>
        0    0    0    0    0    0    0    0  109    0  109    0

>  <Name>
FB1.pdb

>  <RI>
0

>  <Rbt.Current_Directory>
/cluster/tossine/F10/p3/0_clust01/stat

>  <Rbt.Executable>
rbdock/0.1.0

>  <Rbt.Library>
librxdock.so/0.1.0

>  <Rbt.Parameter_File>
/cluster/rxdock/data/scripts/dock.prm

>  <Rbt.Receptor>
rx_3.prm

>  <SCORE>
68.7655

>  <SCORE.INTER>
12.9426

>  <SCORE.INTER.CONST>
1

>  <SCORE.INTER.POLAR>
-1.17511

>  <SCORE.INTER.REPUL>
1.07439

>  <SCORE.INTER.ROT>
32

>  <SCORE.INTER.VDW>
-25.834

>  <SCORE.INTER.norm>
0.258853

>  <SCORE.INTRA>
47.4986

>  <SCORE.INTRA.DIHEDRAL>
67.9436

>  <SCORE.INTRA.DIHEDRAL.0>
47.3121

>  <SCORE.INTRA.POLAR>
0.867004

>  <SCORE.INTRA.POLAR.0>
-1.47808

>  <SCORE.INTRA.REPUL>
0

>  <SCORE.INTRA.REPUL.0>
0

>  <SCORE.INTRA.VDW>
10.579

>  <SCORE.INTRA.VDW.0>
-2.78316

>  <SCORE.INTRA.norm>
0.949973

>  <SCORE.RESTR>
8.32423

>  <SCORE.RESTR.CAVITY>
8.32423

>  <SCORE.RESTR.norm>
0.166485

>  <SCORE.SYSTEM>
0

>  <SCORE.SYSTEM.CONST>
0

>  <SCORE.SYSTEM.DIHEDRAL>
0

>  <SCORE.SYSTEM.norm>
0

>  <SCORE.heavy>
50

>  <SCORE.norm>
1.37531

$$$$
