FB1.pdb
  RxDock  10072011393D
librxdock.so/0.1.0
 59 58  0  0  0  0  0  0  0  0999 V2000
   -4.3361  -14.0708    5.8264 C   0  0  0  0  0  0
   -5.2700  -12.8946    5.5512 C   0  0  0  0  0  0
   -5.5258  -12.0620    6.8183 C   0  0  0  0  0  0
   -4.2466  -11.4053    7.3944 C   0  0  0  0  0  0
   -3.9297   -9.9735    6.8375 C   0  0  0  0  0  0
   -3.6781   -9.0307    8.0369 C   0  0  0  0  0  0
   -2.7075   -9.9436    5.8261 C   0  0  0  0  0  0
   -1.9020   -8.5645    5.7017 C   0  0  0  0  0  0
   -0.5195   -8.3779    4.9388 C   0  0  0  0  0  0
    0.1579   -9.7696    4.3680 C   0  0  0  0  0  0
   -0.4450  -10.0762    2.9981 C   0  0  0  0  0  0
    1.7499   -9.7871    4.2679 C   0  0  0  0  0  0
    2.5808  -10.6336    3.1670 C   0  0  0  0  0  0
    2.7272  -10.1617    1.6798 C   0  0  0  0  0  0
    3.1374  -11.2431    0.5790 C   0  0  0  0  0  0
    2.2105  -11.6853   -0.6209 C   0  0  0  0  0  0
    2.1881  -10.8398   -1.9217 C   0  0  0  0  0  0
    0.7696  -10.5393   -2.5435 C   0  0  0  0  0  0
    0.6969  -10.4836   -4.0745 C   0  0  0  0  0  0
    1.4169   -9.3147   -4.8049 C   0  0  0  0  0  0
    2.9719   -9.2611   -4.8710 C   0  0  0  0  0  0
    3.6099   -9.7012   -6.1813 C   0  0  0  0  0  0
    3.4699   -7.9341   -4.4616 N   0  0  0  0  0  0
    0.9859   -9.4229   -6.1856 O   0  0  0  0  0  0
   -0.1376  -11.5459   -2.0814 O   0  0  0  0  0  0
    3.9235  -10.6864    3.6779 O   0  0  0  0  0  0
   -2.8013   -7.6259    5.0514 O   0  0  0  0  0  0
   -3.1953   -7.9248    3.7862 C   0  0  0  0  0  0
   -3.3151   -9.0394    3.3144 O   0  0  0  0  0  0
   -3.5606   -6.6448    3.0866 C   0  0  0  0  0  0
   -4.2524   -6.8871    1.7356 C   0  0  0  0  0  0
   -5.0079   -5.6510    1.2311 C   0  0  0  0  0  0
   -5.6551   -5.9167   -0.1083 C   0  0  0  0  0  0
   -5.2927   -5.3879   -1.1536 O   0  0  0  0  0  0
   -6.6691   -6.7925   -0.0474 O   0  0  0  0  0  0
   -3.1355   -7.2584    0.7503 C   0  0  0  0  0  0
   -3.1772   -6.9842   -0.4394 O   0  0  0  0  0  0
   -2.1277   -7.9549    1.2937 O   0  0  0  0  0  0
   -1.8013  -11.0968    6.0471 O   0  0  0  0  0  0
   -1.9121  -12.1925    5.2074 C   0  0  0  0  0  0
   -2.7126  -12.2856    4.2860 O   0  0  0  0  0  0
   -0.9087  -13.2996    5.5565 C   0  0  0  0  0  0
    0.5798  -13.0033    5.1945 C   0  0  0  0  0  0
    1.6593  -13.3411    6.2390 C   0  0  0  0  0  0
    2.9376  -12.5821    6.0280 C   0  0  0  0  0  0
    3.0849  -11.3770    6.1782 O   0  0  0  0  0  0
    3.9532  -13.3790    5.6622 O   0  0  0  0  0  0
    1.0413  -13.5974    3.8579 C   0  0  0  0  0  0
    1.4422  -12.9153    2.9355 O   0  0  0  0  0  0
    1.0764  -14.9454    3.8043 O   0  0  0  0  0  0
    2.7198   -7.4248   -3.9964 H   0  0  0  0  0  0
    3.6766   -7.3893   -5.3018 H   0  0  0  0  0  0
    1.3272   -8.6102   -6.6150 H   0  0  0  0  0  0
    0.0616  -12.3750   -2.5541 H   0  0  0  0  0  0
    4.3724  -11.4435    3.2659 H   0  0  0  0  0  0
   -6.7916   -7.2285    0.8177 H   0  0  0  0  0  0
   -1.4884   -8.3300    0.6384 H   0  0  0  0  0  0
    3.7793  -14.2574    6.0615 H   0  0  0  0  0  0
    0.9957  -15.3318    2.9041 H   0  0  0  0  0  0
  1  2  1  0  0  0
  2  3  1  0  0  0
  3  4  1  0  0  0
  4  5  1  0  0  0
  5  6  1  0  0  0
  5  7  1  0  0  0
  7  8  1  0  0  0
  7 39  1  0  0  0
  8  9  1  0  0  0
  8 27  1  0  0  0
  9 10  1  0  0  0
 10 11  1  0  0  0
 10 12  1  0  0  0
 12 13  1  0  0  0
 13 14  1  0  0  0
 13 26  1  0  0  0
 14 15  1  0  0  0
 15 16  1  0  0  0
 16 17  1  0  0  0
 17 18  1  0  0  0
 18 19  1  0  0  0
 18 25  1  0  0  0
 19 20  1  0  0  0
 20 21  1  0  0  0
 20 24  1  0  0  0
 21 22  1  0  0  0
 21 23  1  0  0  0
 23 51  1  0  0  0
 23 52  1  0  0  0
 24 53  1  0  0  0
 25 54  1  0  0  0
 26 55  1  0  0  0
 27 28  1  0  0  0
 28 29  2  0  0  0
 28 30  1  0  0  0
 30 31  1  0  0  0
 31 32  1  0  0  0
 31 36  1  0  0  0
 32 33  1  0  0  0
 33 34  2  0  0  0
 33 35  1  0  0  0
 35 56  1  0  0  0
 36 37  2  0  0  0
 36 38  1  0  0  0
 38 57  1  0  0  0
 39 40  1  0  0  0
 40 41  2  0  0  0
 40 42  1  0  0  0
 42 43  1  0  0  0
 43 44  1  0  0  0
 43 48  1  0  0  0
 44 45  1  0  0  0
 45 46  2  0  0  0
 45 47  1  0  0  0
 47 58  1  0  0  0
 48 49  2  0  0  0
 48 50  1  0  0  0
 50 59  1  0  0  0
M  END
>  <AUTHOR>
    GENERATED BY OPEN BABEL 2.4.1

>  <CHROM.1>
62.51562936,89.99417934,129.61921519,-153.91062165,169.59617637,99.69425857
-5.72045761,-62.88369811,85.25141925,-149.49085417,77.51218858,-160.57975447
158.24397831,115.64103241,84.25074778,-135.31508965,-145.29291479,-67.81967818
-73.88991695,71.18028083,101.58037085,171.58564437,14.69167279,29.39759091
-169.92080721,162.05256020,179.02865561,-148.37827666,-111.33932064,-7.22807508
169.86072524,-0.15213542,-72.46026323,135.50198650,-158.71451402,119.11419588
68.32202176,-29.44470232,155.36746380,-0.77253973,-10.16133138,2.33401892
-1.96895701,0.52045003,-1.16182736

>  <COMPND>
    UNNAMED

>  <MASTER>
        0    0    0    0    0    0    0    0  109    0  109    0

>  <Name>
FB1.pdb

>  <RI>
0

>  <Rbt.Current_Directory>
/cluster/tossine/F10/p3/0_clust01/stat

>  <Rbt.Executable>
rbdock/0.1.0

>  <Rbt.Library>
librxdock.so/0.1.0

>  <Rbt.Parameter_File>
/cluster/rxdock/data/scripts/dock.prm

>  <Rbt.Receptor>
rx_3.prm

>  <SCORE>
54.2336

>  <SCORE.INTER>
15.7904

>  <SCORE.INTER.CONST>
1

>  <SCORE.INTER.POLAR>
-1.07396

>  <SCORE.INTER.REPUL>
1.00056

>  <SCORE.INTER.ROT>
32

>  <SCORE.INTER.VDW>
-22.9609

>  <SCORE.INTER.norm>
0.315808

>  <SCORE.INTRA>
31.5208

>  <SCORE.INTRA.DIHEDRAL>
44.0888

>  <SCORE.INTRA.DIHEDRAL.0>
47.3121

>  <SCORE.INTRA.POLAR>
1.47808

>  <SCORE.INTRA.POLAR.0>
-1.47808

>  <SCORE.INTRA.REPUL>
0

>  <SCORE.INTRA.REPUL.0>
0

>  <SCORE.INTRA.VDW>
4.45094

>  <SCORE.INTRA.VDW.0>
-2.78316

>  <SCORE.INTRA.norm>
0.630416

>  <SCORE.RESTR>
6.92237

>  <SCORE.RESTR.CAVITY>
6.92237

>  <SCORE.RESTR.norm>
0.138447

>  <SCORE.SYSTEM>
0

>  <SCORE.SYSTEM.CONST>
0

>  <SCORE.SYSTEM.DIHEDRAL>
0

>  <SCORE.SYSTEM.norm>
0

>  <SCORE.heavy>
50

>  <SCORE.norm>
1.08467

$$$$
