FB1.pdb
  RxDock  10072011493D
librxdock.so/0.1.0
 59 58  0  0  0  0  0  0  0  0999 V2000
   -2.0514   -9.9986   -3.4491 C   0  0  0  0  0  0
   -0.8105  -10.6470   -2.8399 C   0  0  0  0  0  0
   -1.0026  -10.9509   -1.3449 C   0  0  0  0  0  0
   -0.0528  -12.0522   -0.8115 C   0  0  0  0  0  0
    0.7277  -11.6763    0.4961 C   0  0  0  0  0  0
    1.7793  -10.5997    0.1414 C   0  0  0  0  0  0
   -0.2128  -11.1839    1.6755 C   0  0  0  0  0  0
    0.4282  -11.1352    3.1428 C   0  0  0  0  0  0
    1.6196  -10.1816    3.5896 C   0  0  0  0  0  0
    2.5885  -10.7841    4.7810 C   0  0  0  0  0  0
    3.3775  -11.9634    4.2147 C   0  0  0  0  0  0
    3.5913   -9.7477    5.4630 C   0  0  0  0  0  0
    5.2037   -9.8716    5.4034 C   0  0  0  0  0  0
    6.0245   -9.5403    4.1101 C   0  0  0  0  0  0
    5.8592  -10.4967    2.8424 C   0  0  0  0  0  0
    4.6771  -10.3943    1.8000 C   0  0  0  0  0  0
    4.8570   -9.5328    0.5221 C   0  0  0  0  0  0
    5.4732  -10.2577   -0.7365 C   0  0  0  0  0  0
    4.4856  -11.0051   -1.6412 C   0  0  0  0  0  0
    3.5541  -10.1696   -2.5646 C   0  0  0  0  0  0
    4.0260   -9.7412   -3.9856 C   0  0  0  0  0  0
    3.3279   -8.5339   -4.5960 C   0  0  0  0  0  0
    5.4917   -9.5789   -4.0259 N   0  0  0  0  0  0
    2.4023  -11.0212   -2.7924 O   0  0  0  0  0  0
    6.1554   -9.2745   -1.5224 O   0  0  0  0  0  0
    5.6821   -8.9503    6.3977 O   0  0  0  0  0  0
   -0.6578  -10.8033    4.0499 O   0  0  0  0  0  0
   -0.3953  -10.8797    5.3805 C   0  0  0  0  0  0
    0.4256  -10.2216    5.9908 O   0  0  0  0  0  0
   -1.3639  -11.8477    6.0019 C   0  0  0  0  0  0
   -2.8296  -11.4535    5.7600 C   0  0  0  0  0  0
   -3.7873  -12.6461    5.8792 C   0  0  0  0  0  0
   -5.1863  -12.1896    6.2224 C   0  0  0  0  0  0
   -5.9288  -11.6228    5.4280 O   0  0  0  0  0  0
   -5.5436  -12.4654    7.4854 O   0  0  0  0  0  0
   -3.1652  -10.4018    6.8265 C   0  0  0  0  0  0
   -2.7632  -10.4680    7.9782 O   0  0  0  0  0  0
   -3.9796   -9.4254    6.4032 O   0  0  0  0  0  0
   -0.8909   -9.9124    1.3243 O   0  0  0  0  0  0
   -2.0175   -9.5462    2.0419 C   0  0  0  0  0  0
   -2.7634  -10.3298    2.6147 O   0  0  0  0  0  0
   -2.2390   -8.0279    2.0462 C   0  0  0  0  0  0
   -3.6806   -7.5527    1.6854 C   0  0  0  0  0  0
   -4.2569   -7.9641    0.3182 C   0  0  0  0  0  0
   -3.7600   -7.1068   -0.8098 C   0  0  0  0  0  0
   -3.1865   -7.5091   -1.8127 O   0  0  0  0  0  0
   -4.0284   -5.8056   -0.6222 O   0  0  0  0  0  0
   -4.7431   -7.8801    2.7418 C   0  0  0  0  0  0
   -4.5717   -8.7057    3.6169 O   0  0  0  0  0  0
   -5.8522   -7.1121    2.7056 O   0  0  0  0  0  0
    5.9289  -10.4988   -4.0607 H   0  0  0  0  0  0
    5.8001   -9.1741   -3.1391 H   0  0  0  0  0  0
    1.8320  -10.5069   -3.4020 H   0  0  0  0  0  0
    5.6512   -8.4416   -1.4724 H   0  0  0  0  0  0
    5.4461   -8.0515    6.1133 H   0  0  0  0  0  0
   -4.8158  -12.7474    8.0721 H   0  0  0  0  0  0
   -4.2751   -9.5164    5.4634 H   0  0  0  0  0  0
   -4.4061   -5.7234    0.2789 H   0  0  0  0  0  0
   -5.8623   -6.3594    3.3377 H   0  0  0  0  0  0
  1  2  1  0  0  0
  2  3  1  0  0  0
  3  4  1  0  0  0
  4  5  1  0  0  0
  5  6  1  0  0  0
  5  7  1  0  0  0
  7  8  1  0  0  0
  7 39  1  0  0  0
  8  9  1  0  0  0
  8 27  1  0  0  0
  9 10  1  0  0  0
 10 11  1  0  0  0
 10 12  1  0  0  0
 12 13  1  0  0  0
 13 14  1  0  0  0
 13 26  1  0  0  0
 14 15  1  0  0  0
 15 16  1  0  0  0
 16 17  1  0  0  0
 17 18  1  0  0  0
 18 19  1  0  0  0
 18 25  1  0  0  0
 19 20  1  0  0  0
 20 21  1  0  0  0
 20 24  1  0  0  0
 21 22  1  0  0  0
 21 23  1  0  0  0
 23 51  1  0  0  0
 23 52  1  0  0  0
 24 53  1  0  0  0
 25 54  1  0  0  0
 26 55  1  0  0  0
 27 28  1  0  0  0
 28 29  2  0  0  0
 28 30  1  0  0  0
 30 31  1  0  0  0
 31 32  1  0  0  0
 31 36  1  0  0  0
 32 33  1  0  0  0
 33 34  2  0  0  0
 33 35  1  0  0  0
 35 56  1  0  0  0
 36 37  2  0  0  0
 36 38  1  0  0  0
 38 57  1  0  0  0
 39 40  1  0  0  0
 40 41  2  0  0  0
 40 42  1  0  0  0
 42 43  1  0  0  0
 43 44  1  0  0  0
 43 48  1  0  0  0
 44 45  1  0  0  0
 45 46  2  0  0  0
 45 47  1  0  0  0
 47 58  1  0  0  0
 48 49  2  0  0  0
 48 50  1  0  0  0
 50 59  1  0  0  0
M  END
>  <AUTHOR>
    GENERATED BY OPEN BABEL 2.4.1

>  <CHROM.1>
158.02360798,129.85469445,-70.35688663,164.89763675,64.84831618,161.42219002
-150.00285140,171.42401335,68.49717360,-117.17082488,74.49214085,-67.67614784
-65.46795517,82.06181475,92.55236295,88.82470045,85.88686491,74.03803046
-35.93417770,87.59141443,-157.52403642,-177.91280226,76.63945343,62.09628330
-57.19784026,157.40843179,155.90163256,-38.98869226,72.69442888,12.20655354
1.15440249,-25.72622264,131.05033177,-58.38536003,-79.96310783,-17.10735283
123.47639999,6.30617817,-97.26591684,-0.02028558,-9.99447100,2.06699682,0.64120039
0.12208811,-1.36771077

>  <COMPND>
    UNNAMED

>  <MASTER>
        0    0    0    0    0    0    0    0  109    0  109    0

>  <Name>
FB1.pdb

>  <RI>
0

>  <Rbt.Current_Directory>
/cluster/tossine/F10/p3/0_clust01/stat

>  <Rbt.Executable>
rbdock/0.1.0

>  <Rbt.Library>
librxdock.so/0.1.0

>  <Rbt.Parameter_File>
/cluster/rxdock/data/scripts/dock.prm

>  <Rbt.Receptor>
rx_3.prm

>  <SCORE>
55.4404

>  <SCORE.INTER>
16.1092

>  <SCORE.INTER.CONST>
1

>  <SCORE.INTER.POLAR>
-2.05849

>  <SCORE.INTER.REPUL>
0.686746

>  <SCORE.INTER.ROT>
32

>  <SCORE.INTER.VDW>
-17.7256

>  <SCORE.INTER.norm>
0.322185

>  <SCORE.INTRA>
31.2601

>  <SCORE.INTRA.DIHEDRAL>
56.3686

>  <SCORE.INTRA.DIHEDRAL.0>
47.3121

>  <SCORE.INTRA.POLAR>
-0.346649

>  <SCORE.INTRA.POLAR.0>
-1.47808

>  <SCORE.INTRA.REPUL>
0

>  <SCORE.INTRA.REPUL.0>
0

>  <SCORE.INTRA.VDW>
4.25441

>  <SCORE.INTRA.VDW.0>
-2.78316

>  <SCORE.INTRA.norm>
0.625202

>  <SCORE.RESTR>
8.07106

>  <SCORE.RESTR.CAVITY>
8.07106

>  <SCORE.RESTR.norm>
0.161421

>  <SCORE.SYSTEM>
0

>  <SCORE.SYSTEM.CONST>
0

>  <SCORE.SYSTEM.DIHEDRAL>
0

>  <SCORE.SYSTEM.norm>
0

>  <SCORE.heavy>
50

>  <SCORE.norm>
1.10881

$$$$
