FB1.pdb
  RxDock  10072011533D
librxdock.so/0.1.0
 59 58  0  0  0  0  0  0  0  0999 V2000
    3.0896  -10.2645   -2.8863 C   0  0  0  0  0  0
    2.5335  -11.0673   -1.7125 C   0  0  0  0  0  0
    1.0142  -10.8825   -1.5654 C   0  0  0  0  0  0
    0.6165   -9.9399   -0.4021 C   0  0  0  0  0  0
    0.8597  -10.5223    1.0339 C   0  0  0  0  0  0
    2.3157  -10.2051    1.4462 C   0  0  0  0  0  0
   -0.1670   -9.9843    2.1176 C   0  0  0  0  0  0
   -1.2341   -8.8944    1.6282 C   0  0  0  0  0  0
   -2.0429   -8.9555    0.2605 C   0  0  0  0  0  0
   -3.5038   -8.1896    0.2770 C   0  0  0  0  0  0
   -4.4910   -9.0447    1.0697 C   0  0  0  0  0  0
   -3.5100   -6.6993    0.8461 C   0  0  0  0  0  0
   -4.7893   -5.7102    0.7861 C   0  0  0  0  0  0
   -4.9944   -4.6709   -0.3689 C   0  0  0  0  0  0
   -4.6274   -5.1123   -1.8587 C   0  0  0  0  0  0
   -5.3816   -6.2443   -2.6615 C   0  0  0  0  0  0
   -5.0354   -6.4826   -4.1551 C   0  0  0  0  0  0
   -3.8587   -7.4900   -4.4545 C   0  0  0  0  0  0
   -4.1076   -8.9562   -4.0794 C   0  0  0  0  0  0
   -3.0014   -9.9990   -4.4066 C   0  0  0  0  0  0
   -2.2662   -9.9685   -5.7792 C   0  0  0  0  0  0
   -1.2118   -8.8854   -5.9591 C   0  0  0  0  0  0
   -1.7191  -11.2976   -6.1119 N   0  0  0  0  0  0
   -1.9655   -9.7578   -3.4204 O   0  0  0  0  0  0
   -3.5645   -7.4222   -5.8540 O   0  0  0  0  0  0
   -5.9286   -6.5837    0.7116 O   0  0  0  0  0  0
   -2.2635   -8.8448    2.6530 O   0  0  0  0  0  0
   -1.8723   -8.4861    3.9034 C   0  0  0  0  0  0
   -0.7275   -8.3185    4.2787 O   0  0  0  0  0  0
   -3.1011   -8.2287    4.7312 C   0  0  0  0  0  0
   -3.1106   -9.0342    6.0401 C   0  0  0  0  0  0
   -2.7409  -10.5078    5.8272 C   0  0  0  0  0  0
   -3.8102  -11.2299    5.0406 C   0  0  0  0  0  0
   -4.7174  -11.8712    5.5596 O   0  0  0  0  0  0
   -3.6747  -11.1018    3.7124 O   0  0  0  0  0  0
   -2.0799   -8.3613    6.9571 C   0  0  0  0  0  0
   -2.3804   -7.5336    7.8038 O   0  0  0  0  0  0
   -0.8108   -8.7202    6.7196 O   0  0  0  0  0  0
   -0.8122  -11.1036    2.8460 O   0  0  0  0  0  0
   -1.1013  -12.2644    2.1482 C   0  0  0  0  0  0
   -1.5495  -12.2991    1.0096 O   0  0  0  0  0  0
   -0.7956  -13.5275    2.9639 C   0  0  0  0  0  0
    0.1271  -13.3251    4.2057 C   0  0  0  0  0  0
   -0.4433  -13.6672    5.5942 C   0  0  0  0  0  0
    0.1083  -12.7963    6.6859 C   0  0  0  0  0  0
    1.2830  -12.4842    6.8247 O   0  0  0  0  0  0
   -0.8444  -12.3558    7.5217 O   0  0  0  0  0  0
    1.4978  -14.0048    4.0992 C   0  0  0  0  0  0
    1.6717  -15.0511    3.5061 O   0  0  0  0  0  0
    2.5313  -13.3096    4.6188 O   0  0  0  0  0  0
   -0.8935  -11.4716   -5.5403 H   0  0  0  0  0  0
   -1.3737  -11.2771   -7.0741 H   0  0  0  0  0  0
   -1.7979   -8.7930   -3.4697 H   0  0  0  0  0  0
   -3.1986   -6.5391   -6.0455 H   0  0  0  0  0  0
   -6.0196   -7.0331    1.5685 H   0  0  0  0  0  0
   -2.8718  -10.6299    3.4191 H   0  0  0  0  0  0
   -0.1475   -8.3079    7.3270 H   0  0  0  0  0  0
   -1.6104  -12.9590    7.4181 H   0  0  0  0  0  0
    2.3005  -12.7047    5.3584 H   0  0  0  0  0  0
  1  2  1  0  0  0
  2  3  1  0  0  0
  3  4  1  0  0  0
  4  5  1  0  0  0
  5  6  1  0  0  0
  5  7  1  0  0  0
  7  8  1  0  0  0
  7 39  1  0  0  0
  8  9  1  0  0  0
  8 27  1  0  0  0
  9 10  1  0  0  0
 10 11  1  0  0  0
 10 12  1  0  0  0
 12 13  1  0  0  0
 13 14  1  0  0  0
 13 26  1  0  0  0
 14 15  1  0  0  0
 15 16  1  0  0  0
 16 17  1  0  0  0
 17 18  1  0  0  0
 18 19  1  0  0  0
 18 25  1  0  0  0
 19 20  1  0  0  0
 20 21  1  0  0  0
 20 24  1  0  0  0
 21 22  1  0  0  0
 21 23  1  0  0  0
 23 51  1  0  0  0
 23 52  1  0  0  0
 24 53  1  0  0  0
 25 54  1  0  0  0
 26 55  1  0  0  0
 27 28  1  0  0  0
 28 29  2  0  0  0
 28 30  1  0  0  0
 30 31  1  0  0  0
 31 32  1  0  0  0
 31 36  1  0  0  0
 32 33  1  0  0  0
 33 34  2  0  0  0
 33 35  1  0  0  0
 35 56  1  0  0  0
 36 37  2  0  0  0
 36 38  1  0  0  0
 38 57  1  0  0  0
 39 40  1  0  0  0
 40 41  2  0  0  0
 40 42  1  0  0  0
 42 43  1  0  0  0
 43 44  1  0  0  0
 43 48  1  0  0  0
 44 45  1  0  0  0
 45 46  2  0  0  0
 45 47  1  0  0  0
 47 58  1  0  0  0
 48 49  2  0  0  0
 48 50  1  0  0  0
 50 59  1  0  0  0
M  END
>  <AUTHOR>
    GENERATED BY OPEN BABEL 2.4.1

>  <CHROM.1>
-103.79736022,-70.44593794,86.72669295,-2.94747958,43.13335978,-35.82109246
152.80635714,60.56043058,-74.41415950,172.25895644,-94.62966444,39.86950554
69.56410333,65.21566619,173.50757432,88.34718599,66.25822766,177.57623973
66.70446425,-43.30822084,76.06963780,-50.82051634,-74.75768051,-7.08030649
126.60156129,-46.66127437,-67.69456815,96.17617083,-94.85528896,4.96524515
-178.28720555,-40.88496482,-16.58784339,118.92651278,-147.79910693,-32.84596624
-43.99245197,20.24988687,28.44418987,-1.72013699,-9.84334095,1.40087314,-1.90826667
-0.77017991,1.68419263

>  <COMPND>
    UNNAMED

>  <MASTER>
        0    0    0    0    0    0    0    0  109    0  109    0

>  <Name>
FB1.pdb

>  <RI>
0

>  <Rbt.Current_Directory>
/cluster/tossine/F10/p3/0_clust01/stat

>  <Rbt.Executable>
rbdock/0.1.0

>  <Rbt.Library>
librxdock.so/0.1.0

>  <Rbt.Parameter_File>
/cluster/rxdock/data/scripts/dock.prm

>  <Rbt.Receptor>
rx_3.prm

>  <SCORE>
41.8548

>  <SCORE.INTER>
15.737

>  <SCORE.INTER.CONST>
1

>  <SCORE.INTER.POLAR>
-0.467128

>  <SCORE.INTER.REPUL>
0.0128484

>  <SCORE.INTER.ROT>
32

>  <SCORE.INTER.VDW>
-20.139

>  <SCORE.INTER.norm>
0.314741

>  <SCORE.INTRA>
14.565

>  <SCORE.INTRA.DIHEDRAL>
26.1695

>  <SCORE.INTRA.DIHEDRAL.0>
47.3121

>  <SCORE.INTRA.POLAR>
-0.564804

>  <SCORE.INTRA.POLAR.0>
-1.47808

>  <SCORE.INTRA.REPUL>
0

>  <SCORE.INTRA.REPUL.0>
0

>  <SCORE.INTRA.VDW>
3.40054

>  <SCORE.INTRA.VDW.0>
-2.78316

>  <SCORE.INTRA.norm>
0.291299

>  <SCORE.RESTR>
11.5528

>  <SCORE.RESTR.CAVITY>
11.5528

>  <SCORE.RESTR.norm>
0.231056

>  <SCORE.SYSTEM>
0

>  <SCORE.SYSTEM.CONST>
0

>  <SCORE.SYSTEM.DIHEDRAL>
0

>  <SCORE.SYSTEM.norm>
0

>  <SCORE.heavy>
50

>  <SCORE.norm>
0.837096

$$$$
