FB1.pdb
  RxDock  10072012033D
librxdock.so/0.1.0
 59 58  0  0  0  0  0  0  0  0999 V2000
   -0.0409   -9.2337    6.5939 C   0  0  0  0  0  0
    0.7816   -8.9140    5.3479 C   0  0  0  0  0  0
    1.7578  -10.0507    5.0028 C   0  0  0  0  0  0
    1.0528  -11.3568    4.5593 C   0  0  0  0  0  0
    0.3192  -11.2754    3.1753 C   0  0  0  0  0  0
   -0.2882  -12.6631    2.8654 C   0  0  0  0  0  0
   -0.7909  -10.1433    3.1126 C   0  0  0  0  0  0
   -1.7762  -10.1622    1.8496 C   0  0  0  0  0  0
   -1.5670  -11.0377    0.5389 C   0  0  0  0  0  0
   -0.6589  -10.3260   -0.6401 C   0  0  0  0  0  0
    0.8002  -10.3134   -0.1873 C   0  0  0  0  0  0
   -0.7622  -10.9737   -2.0943 C   0  0  0  0  0  0
   -1.8096  -10.4923   -3.2300 C   0  0  0  0  0  0
   -1.4960   -9.3169   -4.2180 C   0  0  0  0  0  0
   -0.3216   -9.5143   -5.2814 C   0  0  0  0  0  0
   -0.4411  -10.4009   -6.5831 C   0  0  0  0  0  0
    0.6481  -10.2950   -7.6830 C   0  0  0  0  0  0
    0.8251   -8.8844   -8.3672 C   0  0  0  0  0  0
    2.0891   -8.6944   -9.2149 C   0  0  0  0  0  0
    2.3377   -7.3045   -9.8666 C   0  0  0  0  0  0
    3.7435   -6.9317  -10.4237 C   0  0  0  0  0  0
    4.6400   -6.1115   -9.5067 C   0  0  0  0  0  0
    4.4484   -8.1305  -10.9161 N   0  0  0  0  0  0
    1.4575   -7.2760  -11.0190 O   0  0  0  0  0  0
   -0.3182   -8.6490   -9.1962 O   0  0  0  0  0  0
   -2.0025  -11.6449   -4.0672 O   0  0  0  0  0  0
   -3.0755  -10.5742    2.3540 O   0  0  0  0  0  0
   -4.1566   -9.8788    1.9147 C   0  0  0  0  0  0
   -5.2940   -9.9768    2.3342 O   0  0  0  0  0  0
   -3.6966   -8.8850    0.8841 C   0  0  0  0  0  0
   -3.2226   -7.5631    1.5089 C   0  0  0  0  0  0
   -3.0016   -6.4633    0.4625 C   0  0  0  0  0  0
   -4.2996   -6.0832   -0.2113 C   0  0  0  0  0  0
   -5.0780   -6.8990   -0.6931 O   0  0  0  0  0  0
   -4.5237   -4.7610   -0.2319 O   0  0  0  0  0  0
   -4.3251   -7.1410    2.4898 C   0  0  0  0  0  0
   -4.1135   -6.9048    3.6696 O   0  0  0  0  0  0
   -5.5538   -7.0997    1.9564 O   0  0  0  0  0  0
   -1.5331  -10.0497    4.3933 O   0  0  0  0  0  0
   -2.1300   -8.8441    4.7226 C   0  0  0  0  0  0
   -1.9450   -7.7903    4.1280 O   0  0  0  0  0  0
   -3.0658   -8.9672    5.9323 C   0  0  0  0  0  0
   -3.3095  -10.4168    6.4555 C   0  0  0  0  0  0
   -4.0878  -10.5891    7.7727 C   0  0  0  0  0  0
   -3.2087  -10.9736    8.9275 C   0  0  0  0  0  0
   -2.9660  -12.1165    9.2900 O   0  0  0  0  0  0
   -2.6742   -9.9076    9.5427 O   0  0  0  0  0  0
   -3.9390  -11.3675    5.4298 C   0  0  0  0  0  0
   -3.6714  -12.5516    5.3759 O   0  0  0  0  0  0
   -4.8984  -10.8260    4.6503 O   0  0  0  0  0  0
    3.8239   -8.6593  -11.5235 H   0  0  0  0  0  0
    4.6320   -8.7500  -10.1236 H   0  0  0  0  0  0
    1.7597   -8.0220  -11.5788 H   0  0  0  0  0  0
   -1.0617   -8.3882   -8.6220 H   0  0  0  0  0  0
   -2.5091  -12.3023   -3.5616 H   0  0  0  0  0  0
   -5.3715   -4.4883   -0.6323 H   0  0  0  0  0  0
   -6.2877   -7.0695    2.6192 H   0  0  0  0  0  0
   -2.0709  -10.2546   10.2334 H   0  0  0  0  0  0
   -5.1938   -9.9259    4.9126 H   0  0  0  0  0  0
  1  2  1  0  0  0
  2  3  1  0  0  0
  3  4  1  0  0  0
  4  5  1  0  0  0
  5  6  1  0  0  0
  5  7  1  0  0  0
  7  8  1  0  0  0
  7 39  1  0  0  0
  8  9  1  0  0  0
  8 27  1  0  0  0
  9 10  1  0  0  0
 10 11  1  0  0  0
 10 12  1  0  0  0
 12 13  1  0  0  0
 13 14  1  0  0  0
 13 26  1  0  0  0
 14 15  1  0  0  0
 15 16  1  0  0  0
 16 17  1  0  0  0
 17 18  1  0  0  0
 18 19  1  0  0  0
 18 25  1  0  0  0
 19 20  1  0  0  0
 20 21  1  0  0  0
 20 24  1  0  0  0
 21 22  1  0  0  0
 21 23  1  0  0  0
 23 51  1  0  0  0
 23 52  1  0  0  0
 24 53  1  0  0  0
 25 54  1  0  0  0
 26 55  1  0  0  0
 27 28  1  0  0  0
 28 29  2  0  0  0
 28 30  1  0  0  0
 30 31  1  0  0  0
 31 32  1  0  0  0
 31 36  1  0  0  0
 32 33  1  0  0  0
 33 34  2  0  0  0
 33 35  1  0  0  0
 35 56  1  0  0  0
 36 37  2  0  0  0
 36 38  1  0  0  0
 38 57  1  0  0  0
 39 40  1  0  0  0
 40 41  2  0  0  0
 40 42  1  0  0  0
 42 43  1  0  0  0
 43 44  1  0  0  0
 43 48  1  0  0  0
 44 45  1  0  0  0
 45 46  2  0  0  0
 45 47  1  0  0  0
 47 58  1  0  0  0
 48 49  2  0  0  0
 48 50  1  0  0  0
 50 59  1  0  0  0
M  END
>  <AUTHOR>
    GENERATED BY OPEN BABEL 2.4.1

>  <CHROM.1>
66.79296475,68.44927777,178.27651568,-168.81910421,-12.05308253,154.67499829
-88.12861051,135.62898410,72.52918135,92.03695530,86.44003144,66.21113328
70.38864265,75.39813901,167.69960796,-61.33197977,166.80034183,-177.71267838
77.34617577,164.38266761,-97.23761237,-60.89829278,48.85822886,-171.21286282
-86.18961557,-169.35577472,64.68838343,125.01167671,-49.95328230,-177.84569123
164.37064960,-10.42335256,-6.99979902,172.17909553,-105.76883126,145.62240584
-92.29196806,-175.97531492,-9.26211771,-1.52885880,-9.32375183,0.24435418
-1.90223598,0.51211891,-1.28327773

>  <COMPND>
    UNNAMED

>  <MASTER>
        0    0    0    0    0    0    0    0  109    0  109    0

>  <Name>
FB1.pdb

>  <RI>
0

>  <Rbt.Current_Directory>
/cluster/tossine/F10/p3/0_clust01/stat

>  <Rbt.Executable>
rbdock/0.1.0

>  <Rbt.Library>
librxdock.so/0.1.0

>  <Rbt.Parameter_File>
/cluster/rxdock/data/scripts/dock.prm

>  <Rbt.Receptor>
rx_3.prm

>  <SCORE>
38.1292

>  <SCORE.INTER>
11.7365

>  <SCORE.INTER.CONST>
1

>  <SCORE.INTER.POLAR>
-1.94752

>  <SCORE.INTER.REPUL>
0.850253

>  <SCORE.INTER.ROT>
32

>  <SCORE.INTER.VDW>
-23.2932

>  <SCORE.INTER.norm>
0.234731

>  <SCORE.INTRA>
19.1107

>  <SCORE.INTRA.DIHEDRAL>
6.55959

>  <SCORE.INTRA.DIHEDRAL.0>
47.3121

>  <SCORE.INTRA.POLAR>
1.47808

>  <SCORE.INTRA.POLAR.0>
-1.47808

>  <SCORE.INTRA.REPUL>
0

>  <SCORE.INTRA.REPUL.0>
0

>  <SCORE.INTRA.VDW>
10.8054

>  <SCORE.INTRA.VDW.0>
-2.78316

>  <SCORE.INTRA.norm>
0.382214

>  <SCORE.RESTR>
7.28203

>  <SCORE.RESTR.CAVITY>
7.28203

>  <SCORE.RESTR.norm>
0.145641

>  <SCORE.SYSTEM>
0

>  <SCORE.SYSTEM.CONST>
0

>  <SCORE.SYSTEM.DIHEDRAL>
0

>  <SCORE.SYSTEM.norm>
0

>  <SCORE.heavy>
50

>  <SCORE.norm>
0.762585

$$$$
