FB1.pdb
  RxDock  10072012003D
librxdock.so/0.1.0
 59 58  0  0  0  0  0  0  0  0999 V2000
   -0.0037  -12.8341    6.5977 C   0  0  0  0  0  0
   -1.3229  -12.0661    6.6331 C   0  0  0  0  0  0
   -2.1700  -12.3313    5.3775 C   0  0  0  0  0  0
   -3.3524  -11.3446    5.2104 C   0  0  0  0  0  0
   -3.6990  -10.9726    3.7266 C   0  0  0  0  0  0
   -4.9819  -10.1095    3.7294 C   0  0  0  0  0  0
   -2.5187  -10.2323    2.9670 C   0  0  0  0  0  0
   -2.2226   -8.7157    3.3893 C   0  0  0  0  0  0
   -2.5809   -7.4361    2.5160 C   0  0  0  0  0  0
   -3.9602   -7.5645    1.6203 C   0  0  0  0  0  0
   -5.1523   -7.2266    2.5140 C   0  0  0  0  0  0
   -4.0206   -6.6830    0.2921 C   0  0  0  0  0  0
   -5.0360   -5.4424    0.0715 C   0  0  0  0  0  0
   -4.9679   -4.5151   -1.1900 C   0  0  0  0  0  0
   -5.7382   -4.9753   -2.5107 C   0  0  0  0  0  0
   -5.1967   -4.7544   -3.9778 C   0  0  0  0  0  0
   -4.2617   -5.8157   -4.6157 C   0  0  0  0  0  0
   -4.6089   -6.2691   -6.0864 C   0  0  0  0  0  0
   -3.6131   -7.2247   -6.7556 C   0  0  0  0  0  0
   -3.1358   -8.4704   -5.9565 C   0  0  0  0  0  0
   -2.1602   -9.4985   -6.6020 C   0  0  0  0  0  0
   -0.9973   -8.9219   -7.3974 C   0  0  0  0  0  0
   -1.6832  -10.4708   -5.6002 N   0  0  0  0  0  0
   -2.4115   -7.9253   -4.8241 O   0  0  0  0  0  0
   -5.8957   -6.8963   -6.0631 O   0  0  0  0  0  0
   -6.3436   -6.0381    0.0292 O   0  0  0  0  0  0
   -2.9199   -8.5003    4.6462 O   0  0  0  0  0  0
   -2.1843   -8.5972    5.7841 C   0  0  0  0  0  0
   -0.9900   -8.8174    5.8522 O   0  0  0  0  0  0
   -3.0752   -8.2850    6.9547 C   0  0  0  0  0  0
   -2.3879   -8.5435    8.3050 C   0  0  0  0  0  0
   -2.8827   -7.5989    9.4078 C   0  0  0  0  0  0
   -1.9372   -7.5943   10.5865 C   0  0  0  0  0  0
   -1.1834   -8.5235   10.8550 O   0  0  0  0  0  0
   -1.9981   -6.4705   11.3160 O   0  0  0  0  0  0
   -2.7147   -9.9974    8.6731 C   0  0  0  0  0  0
   -1.9522  -10.7130    9.3047 O   0  0  0  0  0  0
   -3.8894  -10.4368    8.2010 O   0  0  0  0  0  0
   -1.2858  -11.0568    2.9608 O   0  0  0  0  0  0
   -0.8094  -11.5208    1.7459 C   0  0  0  0  0  0
   -1.3855  -11.3852    0.6744 O   0  0  0  0  0  0
    0.5413  -12.2357    1.8831 C   0  0  0  0  0  0
    1.7294  -11.3507    2.3725 C   0  0  0  0  0  0
    3.0618  -12.0474    2.7039 C   0  0  0  0  0  0
    3.8591  -11.3219    3.7491 C   0  0  0  0  0  0
    3.6808  -11.3901    4.9574 O   0  0  0  0  0  0
    4.8391  -10.5739    3.2195 O   0  0  0  0  0  0
    2.0551  -10.1601    1.4621 C   0  0  0  0  0  0
    1.2069   -9.3959    1.0458 O   0  0  0  0  0  0
    3.3681   -9.9469    1.2345 O   0  0  0  0  0  0
   -0.7040  -10.6860   -5.7833 H   0  0  0  0  0  0
   -2.1779  -11.3545   -5.7413 H   0  0  0  0  0  0
   -1.6106   -7.5180   -5.2165 H   0  0  0  0  0  0
   -6.5421   -6.2516   -5.7211 H   0  0  0  0  0  0
   -7.0004   -5.3218    0.0241 H   0  0  0  0  0  0
   -1.4418   -6.4641   12.1185 H   0  0  0  0  0  0
   -4.1172  -11.3625    8.4654 H   0  0  0  0  0  0
    4.5649  -10.3589    2.3030 H   0  0  0  0  0  0
    3.5823   -9.1094    0.7667 H   0  0  0  0  0  0
  1  2  1  0  0  0
  2  3  1  0  0  0
  3  4  1  0  0  0
  4  5  1  0  0  0
  5  6  1  0  0  0
  5  7  1  0  0  0
  7  8  1  0  0  0
  7 39  1  0  0  0
  8  9  1  0  0  0
  8 27  1  0  0  0
  9 10  1  0  0  0
 10 11  1  0  0  0
 10 12  1  0  0  0
 12 13  1  0  0  0
 13 14  1  0  0  0
 13 26  1  0  0  0
 14 15  1  0  0  0
 15 16  1  0  0  0
 16 17  1  0  0  0
 17 18  1  0  0  0
 18 19  1  0  0  0
 18 25  1  0  0  0
 19 20  1  0  0  0
 20 21  1  0  0  0
 20 24  1  0  0  0
 21 22  1  0  0  0
 21 23  1  0  0  0
 23 51  1  0  0  0
 23 52  1  0  0  0
 24 53  1  0  0  0
 25 54  1  0  0  0
 26 55  1  0  0  0
 27 28  1  0  0  0
 28 29  2  0  0  0
 28 30  1  0  0  0
 30 31  1  0  0  0
 31 32  1  0  0  0
 31 36  1  0  0  0
 32 33  1  0  0  0
 33 34  2  0  0  0
 33 35  1  0  0  0
 35 56  1  0  0  0
 36 37  2  0  0  0
 36 38  1  0  0  0
 38 57  1  0  0  0
 39 40  1  0  0  0
 40 41  2  0  0  0
 40 42  1  0  0  0
 42 43  1  0  0  0
 43 44  1  0  0  0
 43 48  1  0  0  0
 44 45  1  0  0  0
 45 46  2  0  0  0
 45 47  1  0  0  0
 47 58  1  0  0  0
 48 49  2  0  0  0
 48 50  1  0  0  0
 50 59  1  0  0  0
M  END
>  <AUTHOR>
    GENERATED BY OPEN BABEL 2.4.1

>  <CHROM.1>
-166.90379555,145.48663482,174.06918178,-72.45171251,-106.73746482,115.07821811
33.81213618,98.49526389,83.17458087,-113.11500064,173.85964733,85.38283529
172.10870769,-142.64951932,87.54672525,132.91227283,174.83718501,48.17469798
58.85408652,178.08059606,43.05623176,-67.95268768,-142.35196086,1.78945695
172.56139635,149.04063325,-163.57051687,147.81499080,-24.50027785,176.04522653
-177.83158553,-5.69604887,-63.75233864,172.22296011,-151.36929994,48.27743989
81.06018824,24.88812935,-171.11362464,-1.96941800,-9.02195772,2.21749957
-1.34548069,0.59244369,-1.50646668

>  <COMPND>
    UNNAMED

>  <MASTER>
        0    0    0    0    0    0    0    0  109    0  109    0

>  <Name>
FB1.pdb

>  <RI>
0

>  <Rbt.Current_Directory>
/cluster/tossine/F10/p3/0_clust01/stat

>  <Rbt.Executable>
rbdock/0.1.0

>  <Rbt.Library>
librxdock.so/0.1.0

>  <Rbt.Parameter_File>
/cluster/rxdock/data/scripts/dock.prm

>  <Rbt.Receptor>
rx_3.prm

>  <SCORE>
23.6321

>  <SCORE.INTER>
1.4155

>  <SCORE.INTER.CONST>
1

>  <SCORE.INTER.POLAR>
-1.85506

>  <SCORE.INTER.REPUL>
0.112312

>  <SCORE.INTER.ROT>
32

>  <SCORE.INTER.VDW>
-30.2389

>  <SCORE.INTER.norm>
0.0283101

>  <SCORE.INTRA>
19.4675

>  <SCORE.INTRA.DIHEDRAL>
27.5074

>  <SCORE.INTRA.DIHEDRAL.0>
47.3121

>  <SCORE.INTRA.POLAR>
0.492749

>  <SCORE.INTRA.POLAR.0>
-1.47808

>  <SCORE.INTRA.REPUL>
0

>  <SCORE.INTRA.REPUL.0>
0

>  <SCORE.INTRA.VDW>
4.0384

>  <SCORE.INTRA.VDW.0>
-2.78316

>  <SCORE.INTRA.norm>
0.389349

>  <SCORE.RESTR>
2.7491

>  <SCORE.RESTR.CAVITY>
2.7491

>  <SCORE.RESTR.norm>
0.054982

>  <SCORE.SYSTEM>
0

>  <SCORE.SYSTEM.CONST>
0

>  <SCORE.SYSTEM.DIHEDRAL>
0

>  <SCORE.SYSTEM.norm>
0

>  <SCORE.heavy>
50

>  <SCORE.norm>
0.472641

$$$$
