FB1.pdb
  RxDock  10072012123D
librxdock.so/0.1.0
 59 58  0  0  0  0  0  0  0  0999 V2000
    3.5631  -11.1391  -12.2948 C   0  0  0  0  0  0
    3.5075  -10.5815  -10.8745 C   0  0  0  0  0  0
    3.5343   -9.0442  -10.8649 C   0  0  0  0  0  0
    3.3974   -8.4330   -9.4480 C   0  0  0  0  0  0
    3.2377   -6.8730   -9.4131 C   0  0  0  0  0  0
    4.5426   -6.2393   -9.9481 C   0  0  0  0  0  0
    1.9782   -6.3470  -10.2223 C   0  0  0  0  0  0
    0.5957   -7.1251   -9.9992 C   0  0  0  0  0  0
   -0.2725   -7.7964  -11.1497 C   0  0  0  0  0  0
   -1.8570   -7.3391  -11.1875 C   0  0  0  0  0  0
   -2.1123   -6.3781  -10.0276 C   0  0  0  0  0  0
   -2.3669   -6.6820  -12.5487 C   0  0  0  0  0  0
   -3.8989   -6.2399  -12.8251 C   0  0  0  0  0  0
   -4.3370   -4.7378  -12.9128 C   0  0  0  0  0  0
   -4.5731   -3.9370  -11.5519 C   0  0  0  0  0  0
   -5.3857   -4.4989  -10.3196 C   0  0  0  0  0  0
   -4.9379   -4.1363   -8.8790 C   0  0  0  0  0  0
   -5.7110   -2.9541   -8.1763 C   0  0  0  0  0  0
   -5.8989   -1.6775   -9.0054 C   0  0  0  0  0  0
   -6.7886   -0.5435   -8.4218 C   0  0  0  0  0  0
   -6.3639    0.2077   -7.1253 C   0  0  0  0  0  0
   -7.4737    0.9077   -6.3535 C   0  0  0  0  0  0
   -5.5810   -0.6746   -6.2393 N   0  0  0  0  0  0
   -6.8116    0.4743   -9.4549 O   0  0  0  0  0  0
   -7.0013   -3.4387   -7.7889 O   0  0  0  0  0  0
   -4.2190   -6.7998  -14.1098 O   0  0  0  0  0  0
    0.8868   -8.2166   -9.0847 O   0  0  0  0  0  0
   -0.1251   -8.6339   -8.2803 C   0  0  0  0  0  0
   -1.2922   -8.3009   -8.3608 O   0  0  0  0  0  0
    0.4177   -9.6629   -7.3274 C   0  0  0  0  0  0
    0.4799   -9.1516   -5.8792 C   0  0  0  0  0  0
   -0.7290   -9.5957   -5.0457 C   0  0  0  0  0  0
   -2.0250   -9.2960   -5.7625 C   0  0  0  0  0  0
   -2.7621  -10.1618   -6.2216 O   0  0  0  0  0  0
   -2.2970   -7.9855   -5.8492 O   0  0  0  0  0  0
    1.7704   -9.7304   -5.2826 C   0  0  0  0  0  0
    2.7844   -9.0692   -5.1187 O   0  0  0  0  0  0
    1.7106  -11.0390   -5.0000 O   0  0  0  0  0  0
    1.8192   -4.8801  -10.0714 O   0  0  0  0  0  0
    2.4586   -4.2531   -9.0150 C   0  0  0  0  0  0
    2.8932   -4.8266   -8.0248 O   0  0  0  0  0  0
    2.5694   -2.7361   -9.2170 C   0  0  0  0  0  0
    3.8590   -2.0691   -8.6456 C   0  0  0  0  0  0
    5.2219   -2.6139   -9.1103 C   0  0  0  0  0  0
    6.3769   -2.0346   -8.3456 C   0  0  0  0  0  0
    6.3465   -1.0138   -7.6720 O   0  0  0  0  0  0
    7.4892   -2.7769   -8.4555 O   0  0  0  0  0  0
    3.9069   -0.5433   -8.7937 C   0  0  0  0  0  0
    4.0037    0.2095   -7.8447 O   0  0  0  0  0  0
    3.9424   -0.0851  -10.0626 O   0  0  0  0  0  0
   -5.7751   -0.4310   -5.2690 H   0  0  0  0  0  0
   -4.5877   -0.4695   -6.3688 H   0  0  0  0  0  0
   -7.6771    0.9211   -9.3419 H   0  0  0  0  0  0
   -7.5258   -3.5872   -8.5973 H   0  0  0  0  0  0
   -3.6224   -6.4044  -14.7673 H   0  0  0  0  0  0
   -1.6323   -7.3945   -5.4464 H   0  0  0  0  0  0
    2.5468  -11.4173   -4.6306 H   0  0  0  0  0  0
    8.1841   -2.3212   -7.9352 H   0  0  0  0  0  0
    3.7256    0.8675  -10.1711 H   0  0  0  0  0  0
  1  2  1  0  0  0
  2  3  1  0  0  0
  3  4  1  0  0  0
  4  5  1  0  0  0
  5  6  1  0  0  0
  5  7  1  0  0  0
  7  8  1  0  0  0
  7 39  1  0  0  0
  8  9  1  0  0  0
  8 27  1  0  0  0
  9 10  1  0  0  0
 10 11  1  0  0  0
 10 12  1  0  0  0
 12 13  1  0  0  0
 13 14  1  0  0  0
 13 26  1  0  0  0
 14 15  1  0  0  0
 15 16  1  0  0  0
 16 17  1  0  0  0
 17 18  1  0  0  0
 18 19  1  0  0  0
 18 25  1  0  0  0
 19 20  1  0  0  0
 20 21  1  0  0  0
 20 24  1  0  0  0
 21 22  1  0  0  0
 21 23  1  0  0  0
 23 51  1  0  0  0
 23 52  1  0  0  0
 24 53  1  0  0  0
 25 54  1  0  0  0
 26 55  1  0  0  0
 27 28  1  0  0  0
 28 29  2  0  0  0
 28 30  1  0  0  0
 30 31  1  0  0  0
 31 32  1  0  0  0
 31 36  1  0  0  0
 32 33  1  0  0  0
 33 34  2  0  0  0
 33 35  1  0  0  0
 35 56  1  0  0  0
 36 37  2  0  0  0
 36 38  1  0  0  0
 38 57  1  0  0  0
 39 40  1  0  0  0
 40 41  2  0  0  0
 40 42  1  0  0  0
 42 43  1  0  0  0
 43 44  1  0  0  0
 43 48  1  0  0  0
 44 45  1  0  0  0
 45 46  2  0  0  0
 45 47  1  0  0  0
 47 58  1  0  0  0
 48 49  2  0  0  0
 48 50  1  0  0  0
 50 59  1  0  0  0
M  END
>  <AUTHOR>
    GENERATED BY OPEN BABEL 2.4.1

>  <CHROM.1>
176.67936167,-172.60249978,-65.14708448,45.50648312,-123.44432095,-18.63383330
-127.13009516,150.91961814,-1.90667273,176.48681396,109.32782927,-80.48104236
-61.81570272,-45.75912900,144.92561700,98.32129265,-47.58937089,173.28908369
-69.53487944,64.79855427,-158.29521817,150.74136532,-146.86597878,9.74366364
110.31351901,97.44533729,-49.95293540,103.64516422,110.74056554,0.16880958
178.95151976,-17.49392589,-145.83392391,55.52170421,-171.51273313,120.78968415
-17.94242706,179.52627707,163.87968727,-0.24260739,-5.37928804,-8.85647332
0.43512471,0.01650597,3.11736447

>  <COMPND>
    UNNAMED

>  <MASTER>
        0    0    0    0    0    0    0    0  109    0  109    0

>  <Name>
FB1.pdb

>  <RI>
0

>  <Rbt.Current_Directory>
/cluster/tossine/F10/p3/0_clust01/stat

>  <Rbt.Executable>
rbdock/0.1.0

>  <Rbt.Library>
librxdock.so/0.1.0

>  <Rbt.Parameter_File>
/cluster/rxdock/data/scripts/dock.prm

>  <Rbt.Receptor>
rx_3.prm

>  <SCORE>
38.0164

>  <SCORE.INTER>
1.09384

>  <SCORE.INTER.CONST>
1

>  <SCORE.INTER.POLAR>
-4.32296

>  <SCORE.INTER.REPUL>
0.56453

>  <SCORE.INTER.ROT>
32

>  <SCORE.INTER.VDW>
-24.4307

>  <SCORE.INTER.norm>
0.0218768

>  <SCORE.INTRA>
25.5843

>  <SCORE.INTRA.DIHEDRAL>
23.1709

>  <SCORE.INTRA.DIHEDRAL.0>
47.3121

>  <SCORE.INTRA.POLAR>
1.47808

>  <SCORE.INTRA.POLAR.0>
-1.47808

>  <SCORE.INTRA.REPUL>
0

>  <SCORE.INTRA.REPUL.0>
0

>  <SCORE.INTRA.VDW>
8.97336

>  <SCORE.INTRA.VDW.0>
-2.78316

>  <SCORE.INTRA.norm>
0.511686

>  <SCORE.RESTR>
11.3383

>  <SCORE.RESTR.CAVITY>
11.3383

>  <SCORE.RESTR.norm>
0.226767

>  <SCORE.SYSTEM>
0

>  <SCORE.SYSTEM.CONST>
0

>  <SCORE.SYSTEM.DIHEDRAL>
0

>  <SCORE.SYSTEM.norm>
0

>  <SCORE.heavy>
50

>  <SCORE.norm>
0.760329

$$$$
