FB1.pdb
  RxDock  10072012053D
librxdock.so/0.1.0
 59 58  0  0  0  0  0  0  0  0999 V2000
    5.0062   -9.1887    5.9834 C   0  0  0  0  0  0
    4.2882  -10.5357    6.0217 C   0  0  0  0  0  0
    3.5345  -10.8167    4.7113 C   0  0  0  0  0  0
    2.0093  -11.0066    4.9046 C   0  0  0  0  0  0
    1.2309  -11.4592    3.6202 C   0  0  0  0  0  0
    1.3216  -12.9991    3.5150 C   0  0  0  0  0  0
   -0.2804  -10.9766    3.5927 C   0  0  0  0  0  0
   -1.0058  -10.9438    2.1648 C   0  0  0  0  0  0
   -2.2558  -10.0336    1.7941 C   0  0  0  0  0  0
   -2.9945   -9.3042    3.0761 C   0  0  0  0  0  0
   -1.9658   -8.4367    3.7996 C   0  0  0  0  0  0
   -4.2875   -8.4324    2.7398 C   0  0  0  0  0  0
   -4.2883   -7.1569    1.7440 C   0  0  0  0  0  0
   -5.5967   -6.6175    1.0708 C   0  0  0  0  0  0
   -5.4594   -5.5141   -0.0750 C   0  0  0  0  0  0
   -4.9504   -5.8128   -1.5400 C   0  0  0  0  0  0
   -5.1373   -4.7424   -2.6475 C   0  0  0  0  0  0
   -4.5847   -5.1053   -4.0800 C   0  0  0  0  0  0
   -5.2630   -6.2826   -4.7917 C   0  0  0  0  0  0
   -4.4644   -7.0389   -5.8910 C   0  0  0  0  0  0
   -4.6911   -6.7158   -7.3975 C   0  0  0  0  0  0
   -4.9854   -5.2624   -7.7418 C   0  0  0  0  0  0
   -3.5833   -7.2386   -8.2196 N   0  0  0  0  0  0
   -3.0775   -6.6974   -5.6383 O   0  0  0  0  0  0
   -4.7053   -3.9432   -4.9075 O   0  0  0  0  0  0
   -3.7991   -6.0653    2.5413 O   0  0  0  0  0  0
    0.0132  -10.5657    1.1999 O   0  0  0  0  0  0
   -0.2396  -10.8441   -0.1055 C   0  0  0  0  0  0
   -1.2947  -11.2367   -0.5660 O   0  0  0  0  0  0
    0.9783  -10.4883   -0.9126 C   0  0  0  0  0  0
    0.8776  -10.9597   -2.3721 C   0  0  0  0  0  0
   -0.2487  -10.2573   -3.1412 C   0  0  0  0  0  0
   -0.1443  -10.5239   -4.6249 C   0  0  0  0  0  0
   -0.3621   -9.6759   -5.4835 O   0  0  0  0  0  0
    0.2131  -11.7831   -4.9177 O   0  0  0  0  0  0
    2.2336  -10.6360   -3.0144 C   0  0  0  0  0  0
    2.9081   -9.6683   -2.6965 O   0  0  0  0  0  0
    2.5973  -11.4772   -3.9922 O   0  0  0  0  0  0
   -1.0896  -11.6920    4.6092 O   0  0  0  0  0  0
   -0.8874  -11.3886    5.9453 C   0  0  0  0  0  0
   -0.2323  -12.0703    6.7227 O   0  0  0  0  0  0
   -1.5818  -10.0845    6.3594 C   0  0  0  0  0  0
   -1.7442   -9.8617    7.8951 C   0  0  0  0  0  0
   -2.4594   -8.5833    8.3689 C   0  0  0  0  0  0
   -1.5959   -7.7162    9.2389 C   0  0  0  0  0  0
   -1.9693   -7.1020   10.2288 O   0  0  0  0  0  0
   -0.3188   -7.6876    8.8285 O   0  0  0  0  0  0
   -2.3766  -11.0395    8.6469 C   0  0  0  0  0  0
   -1.9365  -12.1709    8.5917 O   0  0  0  0  0  0
   -3.3997  -10.7210    9.4674 O   0  0  0  0  0  0
   -3.7611   -7.0184   -9.1986 H   0  0  0  0  0  0
   -3.5957   -8.2600   -8.1728 H   0  0  0  0  0  0
   -2.5688   -7.2490   -6.2694 H   0  0  0  0  0  0
   -4.1504   -4.0740   -5.6984 H   0  0  0  0  0  0
   -2.9587   -6.3405    2.9445 H   0  0  0  0  0  0
    0.2824  -11.9857   -5.8704 H   0  0  0  0  0  0
    3.4689  -11.2674   -4.4105 H   0  0  0  0  0  0
    0.1664   -7.1140    9.4584 H   0  0  0  0  0  0
   -3.7117  -11.4479   10.0509 H   0  0  0  0  0  0
  1  2  1  0  0  0
  2  3  1  0  0  0
  3  4  1  0  0  0
  4  5  1  0  0  0
  5  6  1  0  0  0
  5  7  1  0  0  0
  7  8  1  0  0  0
  7 39  1  0  0  0
  8  9  1  0  0  0
  8 27  1  0  0  0
  9 10  1  0  0  0
 10 11  1  0  0  0
 10 12  1  0  0  0
 12 13  1  0  0  0
 13 14  1  0  0  0
 13 26  1  0  0  0
 14 15  1  0  0  0
 15 16  1  0  0  0
 16 17  1  0  0  0
 17 18  1  0  0  0
 18 19  1  0  0  0
 18 25  1  0  0  0
 19 20  1  0  0  0
 20 21  1  0  0  0
 20 24  1  0  0  0
 21 22  1  0  0  0
 21 23  1  0  0  0
 23 51  1  0  0  0
 23 52  1  0  0  0
 24 53  1  0  0  0
 25 54  1  0  0  0
 26 55  1  0  0  0
 27 28  1  0  0  0
 28 29  2  0  0  0
 28 30  1  0  0  0
 30 31  1  0  0  0
 31 32  1  0  0  0
 31 36  1  0  0  0
 32 33  1  0  0  0
 33 34  2  0  0  0
 33 35  1  0  0  0
 35 56  1  0  0  0
 36 37  2  0  0  0
 36 38  1  0  0  0
 38 57  1  0  0  0
 39 40  1  0  0  0
 40 41  2  0  0  0
 40 42  1  0  0  0
 42 43  1  0  0  0
 43 44  1  0  0  0
 43 48  1  0  0  0
 44 45  1  0  0  0
 45 46  2  0  0  0
 45 47  1  0  0  0
 47 58  1  0  0  0
 48 49  2  0  0  0
 48 50  1  0  0  0
 50 59  1  0  0  0
M  END
>  <AUTHOR>
    GENERATED BY OPEN BABEL 2.4.1

>  <CHROM.1>
-120.05177362,-173.19391924,84.89645402,159.94836982,-156.03207673,71.44938202
-11.85270492,161.17580526,58.45448390,-59.54315297,159.50665044,-170.07354589
52.57711873,73.83399957,167.17709651,179.14739171,64.66496056,-156.44450834
164.42068007,-98.57251866,35.25433565,174.12402508,179.63670463,9.09032409
171.36718632,64.68657243,168.34779747,-32.91622521,-140.38106041,179.60041995
179.70392471,-101.25808283,163.90600252,-178.78718690,-120.24963033,54.69427509
-140.84876596,-179.14822395,-170.91254626,-1.43015577,-9.11721487,1.21830475
-1.33480823,0.64329620,-1.49675906

>  <COMPND>
    UNNAMED

>  <MASTER>
        0    0    0    0    0    0    0    0  109    0  109    0

>  <Name>
FB1.pdb

>  <RI>
0

>  <Rbt.Current_Directory>
/cluster/tossine/F10/p3/0_clust01/stat

>  <Rbt.Executable>
rbdock/0.1.0

>  <Rbt.Library>
librxdock.so/0.1.0

>  <Rbt.Parameter_File>
/cluster/rxdock/data/scripts/dock.prm

>  <Rbt.Receptor>
rx_3.prm

>  <SCORE>
39.6234

>  <SCORE.INTER>
13.0764

>  <SCORE.INTER.CONST>
1

>  <SCORE.INTER.POLAR>
-0.244472

>  <SCORE.INTER.REPUL>
1.19398

>  <SCORE.INTER.ROT>
32

>  <SCORE.INTER.VDW>
-29.4623

>  <SCORE.INTER.norm>
0.261528

>  <SCORE.INTRA>
23.3112

>  <SCORE.INTRA.DIHEDRAL>
27.6113

>  <SCORE.INTRA.DIHEDRAL.0>
47.3121

>  <SCORE.INTRA.POLAR>
1.29409

>  <SCORE.INTRA.POLAR.0>
-1.47808

>  <SCORE.INTRA.REPUL>
0

>  <SCORE.INTRA.REPUL.0>
0

>  <SCORE.INTRA.VDW>
5.1057

>  <SCORE.INTRA.VDW.0>
-2.78316

>  <SCORE.INTRA.norm>
0.466225

>  <SCORE.RESTR>
3.23577

>  <SCORE.RESTR.CAVITY>
3.23577

>  <SCORE.RESTR.norm>
0.0647154

>  <SCORE.SYSTEM>
0

>  <SCORE.SYSTEM.CONST>
0

>  <SCORE.SYSTEM.DIHEDRAL>
0

>  <SCORE.SYSTEM.norm>
0

>  <SCORE.heavy>
50

>  <SCORE.norm>
0.792468

$$$$
