FB1.pdb
  RxDock  10072012003D
librxdock.so/0.1.0
 59 58  0  0  0  0  0  0  0  0999 V2000
    1.0549  -13.1103    6.5796 C   0  0  0  0  0  0
    1.3711  -14.1502    5.5072 C   0  0  0  0  0  0
    1.4534  -13.5181    4.1079 C   0  0  0  0  0  0
    0.0691  -13.2907    3.4507 C   0  0  0  0  0  0
   -0.7144  -12.0373    3.9754 C   0  0  0  0  0  0
   -1.6338  -12.4892    5.1335 C   0  0  0  0  0  0
    0.2292  -10.8460    4.4318 C   0  0  0  0  0  0
    1.6804  -10.7706    3.7576 C   0  0  0  0  0  0
    1.9609  -10.4778    2.2201 C   0  0  0  0  0  0
    3.5542  -10.3531    1.8112 C   0  0  0  0  0  0
    4.3781  -11.1500    2.8213 C   0  0  0  0  0  0
    3.9378  -10.8073    0.3309 C   0  0  0  0  0  0
    2.8889  -10.8702   -0.8997 C   0  0  0  0  0  0
    1.4895  -10.1666   -0.8476 C   0  0  0  0  0  0
    0.1837  -11.0614   -1.0562 C   0  0  0  0  0  0
   -0.5724  -11.2226   -2.4336 C   0  0  0  0  0  0
   -0.6393  -10.0220   -3.4141 C   0  0  0  0  0  0
   -1.6059  -10.1748   -4.6516 C   0  0  0  0  0  0
   -1.4263   -9.1559   -5.7839 C   0  0  0  0  0  0
   -0.0390   -9.0646   -6.4805 C   0  0  0  0  0  0
    1.1877   -9.8323   -5.9048 C   0  0  0  0  0  0
    1.8955   -9.1880   -4.7210 C   0  0  0  0  0  0
    0.8388  -11.2352   -5.6107 N   0  0  0  0  0  0
   -0.2515   -9.6312   -7.7987 O   0  0  0  0  0  0
   -1.4291  -11.4894   -5.1905 O   0  0  0  0  0  0
    3.5764  -10.2567   -2.0031 O   0  0  0  0  0  0
    2.4012   -9.7225    4.4608 O   0  0  0  0  0  0
    3.2104  -10.1084    5.4814 C   0  0  0  0  0  0
    3.1292  -11.1459    6.1110 O   0  0  0  0  0  0
    4.2966   -9.0809    5.6422 C   0  0  0  0  0  0
    5.3908   -9.5275    6.6249 C   0  0  0  0  0  0
    6.7218   -9.8316    5.9253 C   0  0  0  0  0  0
    6.9684   -8.8738    4.7829 C   0  0  0  0  0  0
    6.4691   -9.0023    3.6703 O   0  0  0  0  0  0
    7.7888   -7.8618    5.1017 O   0  0  0  0  0  0
    5.5699   -8.3665    7.6128 C   0  0  0  0  0  0
    5.1485   -8.3952    8.7591 O   0  0  0  0  0  0
    6.1860   -7.2931    7.0989 O   0  0  0  0  0  0
   -0.4807   -9.5454    4.3663 O   0  0  0  0  0  0
   -0.5015   -8.7481    5.4986 C   0  0  0  0  0  0
   -0.4209   -7.5267    5.4918 O   0  0  0  0  0  0
   -0.6395   -9.5686    6.7878 C   0  0  0  0  0  0
   -1.8913   -9.2497    7.6629 C   0  0  0  0  0  0
   -3.1903  -10.0252    7.3770 C   0  0  0  0  0  0
   -3.6697   -9.8654    5.9631 C   0  0  0  0  0  0
   -3.2138   -9.0846    5.1390 O   0  0  0  0  0  0
   -4.6737  -10.7037    5.6638 O   0  0  0  0  0  0
   -1.6464   -9.3186    9.1753 C   0  0  0  0  0  0
   -2.0244  -10.2457    9.8639 O   0  0  0  0  0  0
   -0.8845   -8.3279    9.6846 O   0  0  0  0  0  0
    1.6951  -11.7801   -5.5187 H   0  0  0  0  0  0
    0.3612  -11.6304   -6.4238 H   0  0  0  0  0  0
   -0.9128   -9.0406   -8.2174 H   0  0  0  0  0  0
   -2.0566  -11.6027   -5.9281 H   0  0  0  0  0  0
    3.8073   -9.3484   -1.7459 H   0  0  0  0  0  0
    7.9251   -7.1986    4.3981 H   0  0  0  0  0  0
    6.1610   -6.4902    7.6765 H   0  0  0  0  0  0
   -4.9409  -10.5047    4.7416 H   0  0  0  0  0  0
   -0.5690   -7.6636    9.0323 H   0  0  0  0  0  0
  1  2  1  0  0  0
  2  3  1  0  0  0
  3  4  1  0  0  0
  4  5  1  0  0  0
  5  6  1  0  0  0
  5  7  1  0  0  0
  7  8  1  0  0  0
  7 39  1  0  0  0
  8  9  1  0  0  0
  8 27  1  0  0  0
  9 10  1  0  0  0
 10 11  1  0  0  0
 10 12  1  0  0  0
 12 13  1  0  0  0
 13 14  1  0  0  0
 13 26  1  0  0  0
 14 15  1  0  0  0
 15 16  1  0  0  0
 16 17  1  0  0  0
 17 18  1  0  0  0
 18 19  1  0  0  0
 18 25  1  0  0  0
 19 20  1  0  0  0
 20 21  1  0  0  0
 20 24  1  0  0  0
 21 22  1  0  0  0
 21 23  1  0  0  0
 23 51  1  0  0  0
 23 52  1  0  0  0
 24 53  1  0  0  0
 25 54  1  0  0  0
 26 55  1  0  0  0
 27 28  1  0  0  0
 28 29  2  0  0  0
 28 30  1  0  0  0
 30 31  1  0  0  0
 31 32  1  0  0  0
 31 36  1  0  0  0
 32 33  1  0  0  0
 33 34  2  0  0  0
 33 35  1  0  0  0
 35 56  1  0  0  0
 36 37  2  0  0  0
 36 38  1  0  0  0
 38 57  1  0  0  0
 39 40  1  0  0  0
 40 41  2  0  0  0
 40 42  1  0  0  0
 42 43  1  0  0  0
 43 44  1  0  0  0
 43 48  1  0  0  0
 44 45  1  0  0  0
 45 46  2  0  0  0
 45 47  1  0  0  0
 47 58  1  0  0  0
 48 49  2  0  0  0
 48 50  1  0  0  0
 50 59  1  0  0  0
M  END
>  <AUTHOR>
    GENERATED BY OPEN BABEL 2.4.1

>  <CHROM.1>
-80.90687374,78.14660127,-92.54272352,25.71494897,66.07852344,126.38803205
175.95921332,95.57378041,25.54780709,22.27415619,15.30893965,-122.29007258
-59.16220788,-96.76551783,-34.47279024,-170.13967121,-165.81161148,58.62893857
177.23998472,-8.95666111,-79.93082654,62.05136129,162.50341745,-21.96034026
-171.14404981,110.24676794,36.78807774,105.19350708,-81.24291463,-176.60285004
169.68826861,142.38419829,-120.51737918,88.93258616,-57.73971997,-104.06515287
-8.94687140,177.87438162,0.21959258,1.27314507,-10.13569545,2.79950700,1.45610307
0.14737002,1.53530903

>  <COMPND>
    UNNAMED

>  <MASTER>
        0    0    0    0    0    0    0    0  109    0  109    0

>  <Name>
FB1.pdb

>  <RI>
0

>  <Rbt.Current_Directory>
/cluster/tossine/F10/p3/0_clust01/stat

>  <Rbt.Executable>
rbdock/0.1.0

>  <Rbt.Library>
librxdock.so/0.1.0

>  <Rbt.Parameter_File>
/cluster/rxdock/data/scripts/dock.prm

>  <Rbt.Receptor>
rx_3.prm

>  <SCORE>
48.3553

>  <SCORE.INTER>
10.7509

>  <SCORE.INTER.CONST>
1

>  <SCORE.INTER.POLAR>
-0.585079

>  <SCORE.INTER.REPUL>
0.397304

>  <SCORE.INTER.ROT>
32

>  <SCORE.INTER.VDW>
-26.6464

>  <SCORE.INTER.norm>
0.215017

>  <SCORE.INTRA>
32.8646

>  <SCORE.INTRA.DIHEDRAL>
41.3579

>  <SCORE.INTRA.DIHEDRAL.0>
47.3121

>  <SCORE.INTRA.POLAR>
1.47808

>  <SCORE.INTRA.POLAR.0>
-1.47808

>  <SCORE.INTRA.REPUL>
0

>  <SCORE.INTRA.REPUL.0>
0

>  <SCORE.INTRA.VDW>
7.16018

>  <SCORE.INTRA.VDW.0>
-2.78316

>  <SCORE.INTRA.norm>
0.657291

>  <SCORE.RESTR>
4.73985

>  <SCORE.RESTR.CAVITY>
4.73985

>  <SCORE.RESTR.norm>
0.0947969

>  <SCORE.SYSTEM>
0

>  <SCORE.SYSTEM.CONST>
0

>  <SCORE.SYSTEM.DIHEDRAL>
0

>  <SCORE.SYSTEM.norm>
0

>  <SCORE.heavy>
50

>  <SCORE.norm>
0.967106

$$$$
