FB1.pdb
  RxDock  10072012063D
librxdock.so/0.1.0
 59 58  0  0  0  0  0  0  0  0999 V2000
   -1.2721   -7.4579   12.0983 C   0  0  0  0  0  0
   -0.8724   -6.7377   10.8127 C   0  0  0  0  0  0
   -0.7921   -7.7047    9.6198 C   0  0  0  0  0  0
   -2.0996   -8.5003    9.3807 C   0  0  0  0  0  0
   -1.9254   -9.8302    8.5674 C   0  0  0  0  0  0
   -2.3996  -11.0061    9.4523 C   0  0  0  0  0  0
   -2.6862   -9.8252    7.1749 C   0  0  0  0  0  0
   -1.8109   -9.5097    5.8709 C   0  0  0  0  0  0
   -1.7468   -8.1043    5.1299 C   0  0  0  0  0  0
   -3.0649   -7.7392    4.2076 C   0  0  0  0  0  0
   -3.1549   -6.2203    4.0699 C   0  0  0  0  0  0
   -3.1196   -8.4115    2.7619 C   0  0  0  0  0  0
   -2.1599   -7.9912    1.5286 C   0  0  0  0  0  0
   -1.2583   -9.0278    0.7745 C   0  0  0  0  0  0
   -1.9721  -10.1675   -0.0862 C   0  0  0  0  0  0
   -2.0841  -10.1526   -1.6615 C   0  0  0  0  0  0
   -0.8175  -10.4082   -2.5205 C   0  0  0  0  0  0
   -0.9550  -10.1579   -4.0722 C   0  0  0  0  0  0
    0.3095  -10.3810   -4.9110 C   0  0  0  0  0  0
    1.5841   -9.5642   -4.5551 C   0  0  0  0  0  0
    2.7702  -10.2364   -3.8024 C   0  0  0  0  0  0
    2.5588  -10.5217   -2.3221 C   0  0  0  0  0  0
    3.2252  -11.4467   -4.5129 N   0  0  0  0  0  0
    2.1323   -9.1614   -5.8361 O   0  0  0  0  0  0
   -1.9873  -11.0170   -4.5683 O   0  0  0  0  0  0
   -3.0510   -7.4708    0.5277 O   0  0  0  0  0  0
   -0.4308   -9.7902    6.2302 O   0  0  0  0  0  0
    0.0536  -11.0174    5.9067 C   0  0  0  0  0  0
   -0.6026  -12.0262    5.7301 O   0  0  0  0  0  0
    1.5389  -10.9038    5.7010 C   0  0  0  0  0  0
    1.9632  -11.2418    4.2629 C   0  0  0  0  0  0
    1.2860  -10.3410    3.2221 C   0  0  0  0  0  0
    1.5568  -10.8307    1.8185 C   0  0  0  0  0  0
    1.3986  -10.1409    0.8171 O   0  0  0  0  0  0
    1.9910  -12.0988    1.7695 O   0  0  0  0  0  0
    3.4850  -11.0473    4.2153 C   0  0  0  0  0  0
    4.0438  -10.3629    3.3716 O   0  0  0  0  0  0
    4.1596  -11.7320    5.1491 O   0  0  0  0  0  0
   -3.5069  -11.0494    7.0088 O   0  0  0  0  0  0
   -4.1160  -11.2735    5.7853 C   0  0  0  0  0  0
   -3.6823  -10.8823    4.7095 O   0  0  0  0  0  0
   -5.4152  -12.0788    5.9187 C   0  0  0  0  0  0
   -6.6137  -11.5791    5.0536 C   0  0  0  0  0  0
   -6.4576  -11.5978    3.5220 C   0  0  0  0  0  0
   -6.4347  -10.2233    2.9179 C   0  0  0  0  0  0
   -7.1422   -9.8364    1.9980 O   0  0  0  0  0  0
   -5.5444   -9.4156    3.5139 O   0  0  0  0  0  0
   -7.9567  -12.2440    5.3800 C   0  0  0  0  0  0
   -8.1066  -13.0049    6.3156 O   0  0  0  0  0  0
   -8.9996  -11.8464    4.6214 O   0  0  0  0  0  0
    3.0299  -11.3432   -5.5077 H   0  0  0  0  0  0
    2.6506  -12.2372   -4.2125 H   0  0  0  0  0  0
    1.4880   -8.5107   -6.1865 H   0  0  0  0  0  0
   -2.8435  -10.6830   -4.2430 H   0  0  0  0  0  0
   -3.6390   -8.1911    0.2448 H   0  0  0  0  0  0
    2.0626  -12.4803    0.8735 H   0  0  0  0  0  0
    5.1438  -11.6592    5.0800 H   0  0  0  0  0  0
   -5.6181   -8.5425    3.0739 H   0  0  0  0  0  0
   -9.8711  -12.2236    4.8752 H   0  0  0  0  0  0
  1  2  1  0  0  0
  2  3  1  0  0  0
  3  4  1  0  0  0
  4  5  1  0  0  0
  5  6  1  0  0  0
  5  7  1  0  0  0
  7  8  1  0  0  0
  7 39  1  0  0  0
  8  9  1  0  0  0
  8 27  1  0  0  0
  9 10  1  0  0  0
 10 11  1  0  0  0
 10 12  1  0  0  0
 12 13  1  0  0  0
 13 14  1  0  0  0
 13 26  1  0  0  0
 14 15  1  0  0  0
 15 16  1  0  0  0
 16 17  1  0  0  0
 17 18  1  0  0  0
 18 19  1  0  0  0
 18 25  1  0  0  0
 19 20  1  0  0  0
 20 21  1  0  0  0
 20 24  1  0  0  0
 21 22  1  0  0  0
 21 23  1  0  0  0
 23 51  1  0  0  0
 23 52  1  0  0  0
 24 53  1  0  0  0
 25 54  1  0  0  0
 26 55  1  0  0  0
 27 28  1  0  0  0
 28 29  2  0  0  0
 28 30  1  0  0  0
 30 31  1  0  0  0
 31 32  1  0  0  0
 31 36  1  0  0  0
 32 33  1  0  0  0
 33 34  2  0  0  0
 33 35  1  0  0  0
 35 56  1  0  0  0
 36 37  2  0  0  0
 36 38  1  0  0  0
 38 57  1  0  0  0
 39 40  1  0  0  0
 40 41  2  0  0  0
 40 42  1  0  0  0
 42 43  1  0  0  0
 43 44  1  0  0  0
 43 48  1  0  0  0
 44 45  1  0  0  0
 45 46  2  0  0  0
 45 47  1  0  0  0
 47 58  1  0  0  0
 48 49  2  0  0  0
 48 50  1  0  0  0
 50 59  1  0  0  0
M  END
>  <AUTHOR>
    GENERATED BY OPEN BABEL 2.4.1

>  <CHROM.1>
55.63697440,-158.38151949,119.86570654,99.50389134,-100.41321335,-172.83177730
-75.78542802,95.62204852,155.86260378,-71.36847456,124.35765681,66.69889451
-63.57755252,103.18767240,71.67188904,-170.79538956,178.62738430,-57.57207094
71.04273499,104.15720162,-73.74830141,68.99756603,28.15409309,-23.92605549
-117.05649959,58.44540522,-171.33483453,-128.29158141,-162.68330863,172.33909460
175.85285177,29.09548350,137.13507844,62.27537800,-113.26647635,6.54575048
-127.74480241,-178.44063853,-175.67632725,-1.59944931,-10.11635785,3.10235818
-1.98590009,-0.06777084,-1.63290669

>  <COMPND>
    UNNAMED

>  <MASTER>
        0    0    0    0    0    0    0    0  109    0  109    0

>  <Name>
FB1.pdb

>  <RI>
0

>  <Rbt.Current_Directory>
/cluster/tossine/F10/p3/0_clust01/stat

>  <Rbt.Executable>
rbdock/0.1.0

>  <Rbt.Library>
librxdock.so/0.1.0

>  <Rbt.Parameter_File>
/cluster/rxdock/data/scripts/dock.prm

>  <Rbt.Receptor>
rx_3.prm

>  <SCORE>
29.6871

>  <SCORE.INTER>
3.1456

>  <SCORE.INTER.CONST>
1

>  <SCORE.INTER.POLAR>
-0.174301

>  <SCORE.INTER.REPUL>
0.280907

>  <SCORE.INTER.ROT>
32

>  <SCORE.INTER.VDW>
-35.0663

>  <SCORE.INTER.norm>
0.0629121

>  <SCORE.INTRA>
17.273

>  <SCORE.INTRA.DIHEDRAL>
24.2793

>  <SCORE.INTRA.DIHEDRAL.0>
47.3121

>  <SCORE.INTRA.POLAR>
1.43922

>  <SCORE.INTRA.POLAR.0>
-1.47808

>  <SCORE.INTRA.REPUL>
0

>  <SCORE.INTRA.REPUL.0>
0

>  <SCORE.INTRA.VDW>
0.239971

>  <SCORE.INTRA.VDW.0>
-2.78316

>  <SCORE.INTRA.norm>
0.34546

>  <SCORE.RESTR>
9.26857

>  <SCORE.RESTR.CAVITY>
9.26857

>  <SCORE.RESTR.norm>
0.185371

>  <SCORE.SYSTEM>
0

>  <SCORE.SYSTEM.CONST>
0

>  <SCORE.SYSTEM.DIHEDRAL>
0

>  <SCORE.SYSTEM.norm>
0

>  <SCORE.heavy>
50

>  <SCORE.norm>
0.593743

$$$$
