FB1.pdb
  RxDock  10072011543D
librxdock.so/0.1.0
 59 58  0  0  0  0  0  0  0  0999 V2000
   -4.2408   -6.6053    1.6691 C   0  0  0  0  0  0
   -5.1343   -7.8286    1.8596 C   0  0  0  0  0  0
   -4.6439   -8.7178    3.0142 C   0  0  0  0  0  0
   -3.1495   -9.1095    2.9001 C   0  0  0  0  0  0
   -2.7049  -10.2981    3.8221 C   0  0  0  0  0  0
   -3.2046  -11.6171    3.1887 C   0  0  0  0  0  0
   -1.1399  -10.3492    4.0789 C   0  0  0  0  0  0
   -0.2049  -10.6304    2.8090 C   0  0  0  0  0  0
   -0.2247   -9.7962    1.4555 C   0  0  0  0  0  0
   -0.3457  -10.6983    0.0796 C   0  0  0  0  0  0
   -1.7408  -10.4984   -0.5104 C   0  0  0  0  0  0
    0.7542  -10.4209   -1.0420 C   0  0  0  0  0  0
    0.9955  -11.3694   -2.3307 C   0  0  0  0  0  0
   -0.1340  -11.6729   -3.3738 C   0  0  0  0  0  0
   -0.5006  -10.5451   -4.4429 C   0  0  0  0  0  0
   -1.6242   -9.4548   -4.2345 C   0  0  0  0  0  0
   -1.7908   -8.3194   -5.2788 C   0  0  0  0  0  0
   -2.6749   -8.6481   -6.5435 C   0  0  0  0  0  0
   -4.0756   -8.0239   -6.5741 C   0  0  0  0  0  0
   -4.1980   -6.5009   -6.8633 C   0  0  0  0  0  0
   -4.5876   -5.9938   -8.2833 C   0  0  0  0  0  0
   -4.9908   -4.5300   -8.3930 C   0  0  0  0  0  0
   -3.5393   -6.3271   -9.2663 N   0  0  0  0  0  0
   -5.2681   -6.0468   -5.9958 O   0  0  0  0  0  0
   -1.9596   -8.2173   -7.7065 O   0  0  0  0  0  0
    2.0334  -10.7163   -3.0810 O   0  0  0  0  0  0
    1.1654  -10.5185    3.2805 O   0  0  0  0  0  0
    2.0863  -11.3299    2.6984 C   0  0  0  0  0  0
    2.0017  -11.8407    1.5978 O   0  0  0  0  0  0
    3.2853  -11.4143    3.6021 C   0  0  0  0  0  0
    2.9051  -11.3877    5.0912 C   0  0  0  0  0  0
    2.6003  -12.7851    5.6460 C   0  0  0  0  0  0
    1.1735  -13.1881    5.3543 C   0  0  0  0  0  0
    0.2726  -13.1428    6.1849 O   0  0  0  0  0  0
    0.9823  -13.6014    4.0927 O   0  0  0  0  0  0
    4.1111  -10.7833    5.8236 C   0  0  0  0  0  0
    5.1826  -10.5667    5.2784 O   0  0  0  0  0  0
    3.9086  -10.5566    7.1289 O   0  0  0  0  0  0
   -0.6852   -9.1674    4.8512 O   0  0  0  0  0  0
   -1.1251   -9.0241    6.1566 C   0  0  0  0  0  0
   -0.4810   -9.3432    7.1474 O   0  0  0  0  0  0
   -2.5297   -8.4116    6.2355 C   0  0  0  0  0  0
   -3.4022   -8.8714    7.4446 C   0  0  0  0  0  0
   -3.7686  -10.3634    7.5462 C   0  0  0  0  0  0
   -2.5661  -11.2622    7.5719 C   0  0  0  0  0  0
   -1.7682  -11.3603    8.4941 O   0  0  0  0  0  0
   -2.4485  -11.9941    6.4536 O   0  0  0  0  0  0
   -2.8679   -8.4418    8.8165 C   0  0  0  0  0  0
   -2.1006   -9.1219    9.4688 O   0  0  0  0  0  0
   -3.2212   -7.2012    9.2133 O   0  0  0  0  0  0
   -2.7533   -6.7595   -8.7828 H   0  0  0  0  0  0
   -3.1649   -5.4574   -9.6522 H   0  0  0  0  0  0
   -6.0445   -6.5842   -6.2598 H   0  0  0  0  0  0
   -1.1135   -8.7006   -7.7396 H   0  0  0  0  0  0
    1.7108   -9.8362   -3.3375 H   0  0  0  0  0  0
    1.7902  -13.8735    3.6165 H   0  0  0  0  0  0
    3.0464  -10.8965    7.4752 H   0  0  0  0  0  0
   -1.7652  -12.6741    6.6329 H   0  0  0  0  0  0
   -3.7765   -6.6991    8.5763 H   0  0  0  0  0  0
  1  2  1  0  0  0
  2  3  1  0  0  0
  3  4  1  0  0  0
  4  5  1  0  0  0
  5  6  1  0  0  0
  5  7  1  0  0  0
  7  8  1  0  0  0
  7 39  1  0  0  0
  8  9  1  0  0  0
  8 27  1  0  0  0
  9 10  1  0  0  0
 10 11  1  0  0  0
 10 12  1  0  0  0
 12 13  1  0  0  0
 13 14  1  0  0  0
 13 26  1  0  0  0
 14 15  1  0  0  0
 15 16  1  0  0  0
 16 17  1  0  0  0
 17 18  1  0  0  0
 18 19  1  0  0  0
 18 25  1  0  0  0
 19 20  1  0  0  0
 20 21  1  0  0  0
 20 24  1  0  0  0
 21 22  1  0  0  0
 21 23  1  0  0  0
 23 51  1  0  0  0
 23 52  1  0  0  0
 24 53  1  0  0  0
 25 54  1  0  0  0
 26 55  1  0  0  0
 27 28  1  0  0  0
 28 29  2  0  0  0
 28 30  1  0  0  0
 30 31  1  0  0  0
 31 32  1  0  0  0
 31 36  1  0  0  0
 32 33  1  0  0  0
 33 34  2  0  0  0
 33 35  1  0  0  0
 35 56  1  0  0  0
 36 37  2  0  0  0
 36 38  1  0  0  0
 38 57  1  0  0  0
 39 40  1  0  0  0
 40 41  2  0  0  0
 40 42  1  0  0  0
 42 43  1  0  0  0
 43 44  1  0  0  0
 43 48  1  0  0  0
 44 45  1  0  0  0
 45 46  2  0  0  0
 45 47  1  0  0  0
 47 58  1  0  0  0
 48 49  2  0  0  0
 48 50  1  0  0  0
 50 59  1  0  0  0
M  END
>  <AUTHOR>
    GENERATED BY OPEN BABEL 2.4.1

>  <CHROM.1>
-52.48646018,-164.63452054,76.68096744,-64.77898919,54.08304419,65.83495281
-129.42303607,146.49804979,108.61680791,167.87028197,58.67663960,76.83167827
-60.70526418,-91.91551630,173.64566713,84.74296044,105.26881345,73.75042155
59.98509060,100.50222988,166.47446555,-58.57366565,-4.12541140,23.25276601
35.31085603,87.49354304,-83.56220528,-8.70750632,-101.71469474,19.34639034
6.30874020,98.29047768,148.75860358,-62.30970405,57.07644877,-90.14237162
70.01387103,-168.26234075,-0.62633794,-1.10399369,-9.76288212,1.70858162
1.80256328,0.52367959,-1.46864920

>  <COMPND>
    UNNAMED

>  <MASTER>
        0    0    0    0    0    0    0    0  109    0  109    0

>  <Name>
FB1.pdb

>  <RI>
0

>  <Rbt.Current_Directory>
/cluster/tossine/F10/p3/0_clust01/stat

>  <Rbt.Executable>
rbdock/0.1.0

>  <Rbt.Library>
librxdock.so/0.1.0

>  <Rbt.Parameter_File>
/cluster/rxdock/data/scripts/dock.prm

>  <Rbt.Receptor>
rx_3.prm

>  <SCORE>
15.7662

>  <SCORE.INTER>
-3.85373

>  <SCORE.INTER.CONST>
1

>  <SCORE.INTER.POLAR>
-3.0946

>  <SCORE.INTER.REPUL>
0

>  <SCORE.INTER.ROT>
32

>  <SCORE.INTER.VDW>
-30.7321

>  <SCORE.INTER.norm>
-0.0770747

>  <SCORE.INTRA>
16.8795

>  <SCORE.INTRA.DIHEDRAL>
38.4537

>  <SCORE.INTRA.DIHEDRAL.0>
47.3121

>  <SCORE.INTRA.POLAR>
-0.337965

>  <SCORE.INTRA.POLAR.0>
-1.47808

>  <SCORE.INTRA.REPUL>
0

>  <SCORE.INTRA.REPUL.0>
0

>  <SCORE.INTRA.VDW>
-1.19827

>  <SCORE.INTRA.VDW.0>
-2.78316

>  <SCORE.INTRA.norm>
0.33759

>  <SCORE.RESTR>
2.74047

>  <SCORE.RESTR.CAVITY>
2.74047

>  <SCORE.RESTR.norm>
0.0548093

>  <SCORE.SYSTEM>
0

>  <SCORE.SYSTEM.CONST>
0

>  <SCORE.SYSTEM.DIHEDRAL>
0

>  <SCORE.SYSTEM.norm>
0

>  <SCORE.heavy>
50

>  <SCORE.norm>
0.315324

$$$$
