FB1.pdb
  RxDock  10072012053D
librxdock.so/0.1.0
 59 58  0  0  0  0  0  0  0  0999 V2000
   -6.9790  -11.8167    5.1188 C   0  0  0  0  0  0
   -6.5730  -11.2761    3.7498 C   0  0  0  0  0  0
   -5.5542  -10.1307    3.8691 C   0  0  0  0  0  0
   -4.1347  -10.6059    4.2681 C   0  0  0  0  0  0
   -3.0968   -9.4558    4.5140 C   0  0  0  0  0  0
   -3.5484   -8.6513    5.7548 C   0  0  0  0  0  0
   -1.6066   -9.9735    4.6848 C   0  0  0  0  0  0
   -0.9419  -10.7010    3.4220 C   0  0  0  0  0  0
   -1.4330  -10.5522    1.9170 C   0  0  0  0  0  0
   -0.3553  -11.0601    0.7760 C   0  0  0  0  0  0
    0.1192  -12.4640    1.1478 C   0  0  0  0  0  0
   -0.8729  -11.0525   -0.7329 C   0  0  0  0  0  0
    0.0923  -11.1916   -2.0242 C   0  0  0  0  0  0
   -0.1394  -10.3701   -3.3386 C   0  0  0  0  0  0
   -1.4777  -10.6315   -4.1691 C   0  0  0  0  0  0
   -2.7147   -9.6498   -4.1932 C   0  0  0  0  0  0
   -2.5267   -8.1953   -4.6996 C   0  0  0  0  0  0
   -2.6007   -7.9765   -6.2604 C   0  0  0  0  0  0
   -1.7006   -8.8766   -7.1160 C   0  0  0  0  0  0
   -0.1988   -8.4983   -7.2559 C   0  0  0  0  0  0
    0.9031   -9.5972   -7.1954 C   0  0  0  0  0  0
    0.4891  -10.9403   -6.6105 C   0  0  0  0  0  0
    1.5450   -9.7708   -8.5123 N   0  0  0  0  0  0
   -0.0860   -7.9262   -8.5840 O   0  0  0  0  0  0
   -3.9588   -8.1705   -6.6697 O   0  0  0  0  0  0
    1.3929  -10.7945   -1.5580 O   0  0  0  0  0  0
    0.4469  -10.2734    3.3912 O   0  0  0  0  0  0
    1.3877  -11.2118    3.6734 C   0  0  0  0  0  0
    1.2152  -12.2354    4.3073 O   0  0  0  0  0  0
    2.6666  -10.8264    2.9825 C   0  0  0  0  0  0
    3.7550  -10.3700    3.9671 C   0  0  0  0  0  0
    3.1722   -9.8172    5.2741 C   0  0  0  0  0  0
    3.6060  -10.6487    6.4589 C   0  0  0  0  0  0
    2.9994  -11.6399    6.8504 O   0  0  0  0  0  0
    4.7252  -10.1996    7.0458 O   0  0  0  0  0  0
    4.6095  -11.6117    4.2567 C   0  0  0  0  0  0
    5.8242  -11.5715    4.3802 O   0  0  0  0  0  0
    3.9176  -12.7579    4.3147 O   0  0  0  0  0  0
   -0.7309   -8.9114    5.2371 O   0  0  0  0  0  0
   -0.7288   -8.7048    6.6065 C   0  0  0  0  0  0
   -0.4529   -7.6433    7.1502 O   0  0  0  0  0  0
   -1.1160   -9.9672    7.3880 C   0  0  0  0  0  0
   -2.1786   -9.7680    8.5131 C   0  0  0  0  0  0
   -2.8775  -11.0184    9.0774 C   0  0  0  0  0  0
   -3.9400  -11.5588    8.1644 C   0  0  0  0  0  0
   -4.1959  -11.1432    7.0427 O   0  0  0  0  0  0
   -4.6010  -12.5950    8.7030 O   0  0  0  0  0  0
   -1.6926   -8.9417    9.7102 C   0  0  0  0  0  0
   -2.1267   -9.0910   10.8354 O   0  0  0  0  0  0
   -0.6665   -8.1026    9.4567 O   0  0  0  0  0  0
    0.8318   -9.9967   -9.2044 H   0  0  0  0  0  0
    2.1474  -10.5962   -8.4758 H   0  0  0  0  0  0
    0.8093   -7.5270   -8.6054 H   0  0  0  0  0  0
   -3.9544   -8.6114   -7.5392 H   0  0  0  0  0  0
    1.3110   -9.9159   -1.1508 H   0  0  0  0  0  0
    5.1031   -9.3879    6.6561 H   0  0  0  0  0  0
    4.3954  -13.5035    4.7559 H   0  0  0  0  0  0
   -5.2183  -12.9228    8.0154 H   0  0  0  0  0  0
   -0.2597   -7.6858   10.2486 H   0  0  0  0  0  0
  1  2  1  0  0  0
  2  3  1  0  0  0
  3  4  1  0  0  0
  4  5  1  0  0  0
  5  6  1  0  0  0
  5  7  1  0  0  0
  7  8  1  0  0  0
  7 39  1  0  0  0
  8  9  1  0  0  0
  8 27  1  0  0  0
  9 10  1  0  0  0
 10 11  1  0  0  0
 10 12  1  0  0  0
 12 13  1  0  0  0
 13 14  1  0  0  0
 13 26  1  0  0  0
 14 15  1  0  0  0
 15 16  1  0  0  0
 16 17  1  0  0  0
 17 18  1  0  0  0
 18 19  1  0  0  0
 18 25  1  0  0  0
 19 20  1  0  0  0
 20 21  1  0  0  0
 20 24  1  0  0  0
 21 22  1  0  0  0
 21 23  1  0  0  0
 23 51  1  0  0  0
 23 52  1  0  0  0
 24 53  1  0  0  0
 25 54  1  0  0  0
 26 55  1  0  0  0
 27 28  1  0  0  0
 28 29  2  0  0  0
 28 30  1  0  0  0
 30 31  1  0  0  0
 31 32  1  0  0  0
 31 36  1  0  0  0
 32 33  1  0  0  0
 33 34  2  0  0  0
 33 35  1  0  0  0
 35 56  1  0  0  0
 36 37  2  0  0  0
 36 38  1  0  0  0
 38 57  1  0  0  0
 39 40  1  0  0  0
 40 41  2  0  0  0
 40 42  1  0  0  0
 42 43  1  0  0  0
 43 44  1  0  0  0
 43 48  1  0  0  0
 44 45  1  0  0  0
 45 46  2  0  0  0
 45 47  1  0  0  0
 47 58  1  0  0  0
 48 49  2  0  0  0
 48 50  1  0  0  0
 50 59  1  0  0  0
M  END
>  <AUTHOR>
    GENERATED BY OPEN BABEL 2.4.1

>  <CHROM.1>
73.39000084,-175.23038933,65.79326143,63.65161835,20.42994447,82.11086359
164.06635095,111.27459178,50.44797367,165.94130950,-140.99402509,-64.05938436
-53.87382576,104.92864479,59.73734628,83.92288069,-51.87561083,-80.33435197
-143.14282429,138.36118896,-16.88275929,169.02451827,-56.91369523,-22.70855719
109.81002636,-25.50311478,117.95054356,141.29514803,-87.72641575,1.59925180
-162.74160376,-153.73521831,-132.77846163,164.27440261,-76.77043372,-151.23839444
4.94101530,-175.63492995,-170.33689907,-0.63700124,-10.22100646,2.29305336
1.59525875,-0.10110516,1.63757774

>  <COMPND>
    UNNAMED

>  <MASTER>
        0    0    0    0    0    0    0    0  109    0  109    0

>  <Name>
FB1.pdb

>  <RI>
0

>  <Rbt.Current_Directory>
/cluster/tossine/F10/p3/0_clust01/stat

>  <Rbt.Executable>
rbdock/0.1.0

>  <Rbt.Library>
librxdock.so/0.1.0

>  <Rbt.Parameter_File>
/cluster/rxdock/data/scripts/dock.prm

>  <Rbt.Receptor>
rx_3.prm

>  <SCORE>
43.7018

>  <SCORE.INTER>
9.93896

>  <SCORE.INTER.CONST>
1

>  <SCORE.INTER.POLAR>
-0.351884

>  <SCORE.INTER.REPUL>
0.0228875

>  <SCORE.INTER.ROT>
32

>  <SCORE.INTER.VDW>
-26.3791

>  <SCORE.INTER.norm>
0.198779

>  <SCORE.INTRA>
30.1765

>  <SCORE.INTRA.DIHEDRAL>
30.0772

>  <SCORE.INTRA.DIHEDRAL.0>
47.3121

>  <SCORE.INTRA.POLAR>
1.47808

>  <SCORE.INTRA.POLAR.0>
-1.47808

>  <SCORE.INTRA.REPUL>
0

>  <SCORE.INTRA.REPUL.0>
0

>  <SCORE.INTRA.VDW>
10.1124

>  <SCORE.INTRA.VDW.0>
-2.78316

>  <SCORE.INTRA.norm>
0.603529

>  <SCORE.RESTR>
3.58634

>  <SCORE.RESTR.CAVITY>
3.58634

>  <SCORE.RESTR.norm>
0.0717268

>  <SCORE.SYSTEM>
0

>  <SCORE.SYSTEM.CONST>
0

>  <SCORE.SYSTEM.DIHEDRAL>
0

>  <SCORE.SYSTEM.norm>
0

>  <SCORE.heavy>
50

>  <SCORE.norm>
0.874035

$$$$
