FB1.pdb
  RxDock  10072011453D
librxdock.so/0.1.0
 59 58  0  0  0  0  0  0  0  0999 V2000
    1.5770  -13.9610    2.0460 C   0  0  0  0  0  0
    2.1493  -12.5753    2.3351 C   0  0  0  0  0  0
    3.1940  -12.6147    3.4626 C   0  0  0  0  0  0
    2.7105  -13.3687    4.7265 C   0  0  0  0  0  0
    1.2288  -13.0723    5.1474 C   0  0  0  0  0  0
    1.0722  -13.4149    6.6469 C   0  0  0  0  0  0
    0.7741  -11.5803    4.8556 C   0  0  0  0  0  0
   -0.7885  -11.3342    4.6028 C   0  0  0  0  0  0
   -1.4531  -11.0530    3.1860 C   0  0  0  0  0  0
   -0.9341   -9.6819    2.4297 C   0  0  0  0  0  0
    0.0482  -10.0775    1.3285 C   0  0  0  0  0  0
   -2.0701   -8.7418    1.8208 C   0  0  0  0  0  0
   -2.0180   -8.1004    0.3360 C   0  0  0  0  0  0
   -2.3333   -8.9360   -0.9517 C   0  0  0  0  0  0
   -1.1325   -9.7090   -1.6659 C   0  0  0  0  0  0
   -1.2166  -10.3396   -3.1115 C   0  0  0  0  0  0
   -0.0762  -10.0735   -4.1293 C   0  0  0  0  0  0
   -0.0344  -11.0054   -5.4017 C   0  0  0  0  0  0
    0.6180  -10.4126   -6.6569 C   0  0  0  0  0  0
    0.2005   -8.9812   -7.0988 C   0  0  0  0  0  0
    0.4818   -8.4871   -8.5487 C   0  0  0  0  0  0
    1.8434   -8.8380   -9.1319 C   0  0  0  0  0  0
   -0.6035   -8.8928   -9.4619 N   0  0  0  0  0  0
   -1.2441   -8.9633   -6.9697 O   0  0  0  0  0  0
    0.6647  -12.2039   -5.0487 O   0  0  0  0  0  0
   -3.0003   -7.0509    0.3522 O   0  0  0  0  0  0
   -1.4710  -12.5208    5.0913 O   0  0  0  0  0  0
   -2.3487  -12.3506    6.1140 C   0  0  0  0  0  0
   -3.4283  -12.8978    6.2341 O   0  0  0  0  0  0
   -1.7195  -11.4437    7.1353 C   0  0  0  0  0  0
   -2.7433  -10.5220    7.8169 C   0  0  0  0  0  0
   -3.3672   -9.5136    6.8437 C   0  0  0  0  0  0
   -2.6151   -8.2031    6.8601 C   0  0  0  0  0  0
   -2.0992   -7.7298    7.8668 O   0  0  0  0  0  0
   -2.5623   -7.6023    5.6622 O   0  0  0  0  0  0
   -3.8300  -11.4456    8.3846 C   0  0  0  0  0  0
   -4.9066  -11.6246    7.8357 O   0  0  0  0  0  0
   -3.5207  -12.0046    9.5626 O   0  0  0  0  0  0
    1.3262  -10.6450    5.8658 O   0  0  0  0  0  0
    2.6801  -10.7069    6.1507 C   0  0  0  0  0  0
    3.1773  -11.4108    7.0200 O   0  0  0  0  0  0
    3.5097   -9.7852    5.2470 C   0  0  0  0  0  0
    5.0394  -10.0878    5.1925 C   0  0  0  0  0  0
    5.5731  -10.9054    4.0021 C   0  0  0  0  0  0
    6.6816  -11.8431    4.3845 C   0  0  0  0  0  0
    6.7055  -13.0466    4.1658 O   0  0  0  0  0  0
    7.6965  -11.2151    4.9974 O   0  0  0  0  0  0
    5.9389   -8.8536    5.3340 C   0  0  0  0  0  0
    6.4819   -8.3204    4.3866 O   0  0  0  0  0  0
    6.0069   -8.3253    6.5739 O   0  0  0  0  0  0
   -0.5151   -9.8876   -9.6647 H   0  0  0  0  0  0
   -0.4645   -8.4272  -10.3616 H   0  0  0  0  0  0
   -1.5682   -9.4500   -7.7567 H   0  0  0  0  0  0
    0.2273  -12.5928   -4.2690 H   0  0  0  0  0  0
   -2.6727   -6.3412    0.9297 H   0  0  0  0  0  0
   -2.0830   -6.7517    5.6435 H   0  0  0  0  0  0
   -2.5908  -11.8454    9.8605 H   0  0  0  0  0  0
    8.3121  -11.9121    5.3081 H   0  0  0  0  0  0
    5.4259   -8.7499    7.2435 H   0  0  0  0  0  0
  1  2  1  0  0  0
  2  3  1  0  0  0
  3  4  1  0  0  0
  4  5  1  0  0  0
  5  6  1  0  0  0
  5  7  1  0  0  0
  7  8  1  0  0  0
  7 39  1  0  0  0
  8  9  1  0  0  0
  8 27  1  0  0  0
  9 10  1  0  0  0
 10 11  1  0  0  0
 10 12  1  0  0  0
 12 13  1  0  0  0
 13 14  1  0  0  0
 13 26  1  0  0  0
 14 15  1  0  0  0
 15 16  1  0  0  0
 16 17  1  0  0  0
 17 18  1  0  0  0
 18 19  1  0  0  0
 18 25  1  0  0  0
 19 20  1  0  0  0
 20 21  1  0  0  0
 20 24  1  0  0  0
 21 22  1  0  0  0
 21 23  1  0  0  0
 23 51  1  0  0  0
 23 52  1  0  0  0
 24 53  1  0  0  0
 25 54  1  0  0  0
 26 55  1  0  0  0
 27 28  1  0  0  0
 28 29  2  0  0  0
 28 30  1  0  0  0
 30 31  1  0  0  0
 31 32  1  0  0  0
 31 36  1  0  0  0
 32 33  1  0  0  0
 33 34  2  0  0  0
 33 35  1  0  0  0
 35 56  1  0  0  0
 36 37  2  0  0  0
 36 38  1  0  0  0
 38 57  1  0  0  0
 39 40  1  0  0  0
 40 41  2  0  0  0
 40 42  1  0  0  0
 42 43  1  0  0  0
 43 44  1  0  0  0
 43 48  1  0  0  0
 44 45  1  0  0  0
 45 46  2  0  0  0
 45 47  1  0  0  0
 47 58  1  0  0  0
 48 49  2  0  0  0
 48 50  1  0  0  0
 50 59  1  0  0  0
M  END
>  <AUTHOR>
    GENERATED BY OPEN BABEL 2.4.1

>  <CHROM.1>
-49.62425927,-41.99179722,-158.02783039,152.84428750,-105.03707807,49.58314555
-61.72705569,118.16321764,102.99796545,-133.65949497,76.93862519,-89.10624087
69.32659304,-166.89520126,132.49029439,165.12807638,153.50092882,-47.66741013
55.06635962,-161.80431672,-42.39437031,-77.43197739,-75.19136221,139.79624594
145.04953926,-65.61578758,-93.65365190,-100.71926650,-34.83870678,179.90606908
-7.44891330,-90.12365000,-162.54215123,98.67090774,-143.41221252,-101.66226028
125.99844844,172.98858633,-3.94112914,0.52161406,-10.51930029,2.46024559
-1.53848954,0.10098319,-1.46284433

>  <COMPND>
    UNNAMED

>  <MASTER>
        0    0    0    0    0    0    0    0  109    0  109    0

>  <Name>
FB1.pdb

>  <RI>
0

>  <Rbt.Current_Directory>
/cluster/tossine/F10/p3/0_clust01/stat

>  <Rbt.Executable>
rbdock/0.1.0

>  <Rbt.Library>
librxdock.so/0.1.0

>  <Rbt.Parameter_File>
/cluster/rxdock/data/scripts/dock.prm

>  <Rbt.Receptor>
rx_3.prm

>  <SCORE>
56.3369

>  <SCORE.INTER>
7.63077

>  <SCORE.INTER.CONST>
1

>  <SCORE.INTER.POLAR>
-2.08488

>  <SCORE.INTER.REPUL>
0.0891472

>  <SCORE.INTER.ROT>
32

>  <SCORE.INTER.VDW>
-23.1264

>  <SCORE.INTER.norm>
0.152615

>  <SCORE.INTRA>
37.9384

>  <SCORE.INTRA.DIHEDRAL>
55.4234

>  <SCORE.INTRA.DIHEDRAL.0>
47.3121

>  <SCORE.INTRA.POLAR>
1.23176

>  <SCORE.INTRA.POLAR.0>
-1.47808

>  <SCORE.INTRA.REPUL>
0

>  <SCORE.INTRA.REPUL.0>
0

>  <SCORE.INTRA.VDW>
6.03873

>  <SCORE.INTRA.VDW.0>
-2.78316

>  <SCORE.INTRA.norm>
0.758768

>  <SCORE.RESTR>
10.7677

>  <SCORE.RESTR.CAVITY>
10.7677

>  <SCORE.RESTR.norm>
0.215355

>  <SCORE.SYSTEM>
0

>  <SCORE.SYSTEM.CONST>
0

>  <SCORE.SYSTEM.DIHEDRAL>
0

>  <SCORE.SYSTEM.norm>
0

>  <SCORE.heavy>
50

>  <SCORE.norm>
1.12674

$$$$
