FB1.pdb
  RxDock  10072011583D
librxdock.so/0.1.0
 59 58  0  0  0  0  0  0  0  0999 V2000
   -3.4045  -12.1047    7.9129 C   0  0  0  0  0  0
   -4.2170  -13.0758    7.0595 C   0  0  0  0  0  0
   -4.3901  -12.5618    5.6207 C   0  0  0  0  0  0
   -3.1974  -12.9064    4.6941 C   0  0  0  0  0  0
   -1.8391  -12.2250    5.0831 C   0  0  0  0  0  0
   -0.7322  -13.3044    5.0665 C   0  0  0  0  0  0
   -1.4535  -11.0023    4.1480 C   0  0  0  0  0  0
   -0.4293   -9.9258    4.7466 C   0  0  0  0  0  0
   -0.8271   -8.7131    5.6950 C   0  0  0  0  0  0
   -2.0165   -9.0422    6.7897 C   0  0  0  0  0  0
   -2.3307   -7.7631    7.5639 C   0  0  0  0  0  0
   -3.3657   -9.6551    6.1991 C   0  0  0  0  0  0
   -4.1692   -9.0343    4.9391 C   0  0  0  0  0  0
   -3.4382   -8.4019    3.7055 C   0  0  0  0  0  0
   -4.3282   -7.7868    2.5313 C   0  0  0  0  0  0
   -4.0507   -6.3926    1.8431 C   0  0  0  0  0  0
   -5.1653   -5.7223    0.9970 C   0  0  0  0  0  0
   -5.3136   -6.2174   -0.4937 C   0  0  0  0  0  0
   -6.3039   -5.4422   -1.3717 C   0  0  0  0  0  0
   -5.7428   -4.3607   -2.3380 C   0  0  0  0  0  0
   -5.5225   -4.6840   -3.8454 C   0  0  0  0  0  0
   -5.1791   -3.5069   -4.7476 C   0  0  0  0  0  0
   -4.5464   -5.7777   -4.0111 N   0  0  0  0  0  0
   -6.7351   -3.3030   -2.3219 O   0  0  0  0  0  0
   -4.0216   -6.1623   -1.1080 O   0  0  0  0  0  0
   -4.9245  -10.1343    4.4043 O   0  0  0  0  0  0
    0.5479  -10.6783    5.5155 O   0  0  0  0  0  0
    1.8192  -10.2000    5.5340 C   0  0  0  0  0  0
    2.2186   -9.1970    4.9738 O   0  0  0  0  0  0
    2.6397  -11.0644    6.4511 C   0  0  0  0  0  0
    3.7584  -11.8148    5.7110 C   0  0  0  0  0  0
    3.2154  -12.8398    4.7071 C   0  0  0  0  0  0
    4.3142  -13.3567    3.8076 C   0  0  0  0  0  0
    4.3471  -13.1631    2.5972 O   0  0  0  0  0  0
    5.2577  -14.0504    4.4612 O   0  0  0  0  0  0
    4.5726  -10.7406    4.9765 C   0  0  0  0  0  0
    4.4832  -10.5417    3.7745 O   0  0  0  0  0  0
    5.4304  -10.0678    5.7558 O   0  0  0  0  0  0
   -1.0442  -11.4672    2.8003 O   0  0  0  0  0  0
   -1.2905  -10.6421    1.7156 C   0  0  0  0  0  0
   -1.9591   -9.6176    1.7576 O   0  0  0  0  0  0
   -0.6257  -11.1531    0.4306 C   0  0  0  0  0  0
    0.9341  -11.1873    0.4423 C   0  0  0  0  0  0
    1.6888   -9.8973    0.0724 C   0  0  0  0  0  0
    3.1757  -10.0900   -0.0073 C   0  0  0  0  0  0
    3.7791  -10.6103   -0.9356 O   0  0  0  0  0  0
    3.8146   -9.6034    1.0676 O   0  0  0  0  0  0
    1.5506  -11.7153    1.7437 C   0  0  0  0  0  0
    2.0745  -10.9915    2.5673 O   0  0  0  0  0  0
    1.3803  -13.0345    1.9720 O   0  0  0  0  0  0
   -4.2742   -5.8369   -4.9914 H   0  0  0  0  0  0
   -5.0137   -6.6654   -3.8135 H   0  0  0  0  0  0
   -6.6813   -2.9279   -1.4176 H   0  0  0  0  0  0
   -4.1252   -6.3742   -2.0540 H   0  0  0  0  0  0
   -5.6696  -10.3073    5.0038 H   0  0  0  0  0  0
    5.0274  -14.3090    5.3742 H   0  0  0  0  0  0
    5.3443  -10.2606    6.7223 H   0  0  0  0  0  0
    4.7367   -9.9331    1.0200 H   0  0  0  0  0  0
    1.8213  -13.3810    2.7792 H   0  0  0  0  0  0
  1  2  1  0  0  0
  2  3  1  0  0  0
  3  4  1  0  0  0
  4  5  1  0  0  0
  5  6  1  0  0  0
  5  7  1  0  0  0
  7  8  1  0  0  0
  7 39  1  0  0  0
  8  9  1  0  0  0
  8 27  1  0  0  0
  9 10  1  0  0  0
 10 11  1  0  0  0
 10 12  1  0  0  0
 12 13  1  0  0  0
 13 14  1  0  0  0
 13 26  1  0  0  0
 14 15  1  0  0  0
 15 16  1  0  0  0
 16 17  1  0  0  0
 17 18  1  0  0  0
 18 19  1  0  0  0
 18 25  1  0  0  0
 19 20  1  0  0  0
 20 21  1  0  0  0
 20 24  1  0  0  0
 21 22  1  0  0  0
 21 23  1  0  0  0
 23 51  1  0  0  0
 23 52  1  0  0  0
 24 53  1  0  0  0
 25 54  1  0  0  0
 26 55  1  0  0  0
 27 28  1  0  0  0
 28 29  2  0  0  0
 28 30  1  0  0  0
 30 31  1  0  0  0
 31 32  1  0  0  0
 31 36  1  0  0  0
 32 33  1  0  0  0
 33 34  2  0  0  0
 33 35  1  0  0  0
 35 56  1  0  0  0
 36 37  2  0  0  0
 36 38  1  0  0  0
 38 57  1  0  0  0
 39 40  1  0  0  0
 40 41  2  0  0  0
 40 42  1  0  0  0
 42 43  1  0  0  0
 43 44  1  0  0  0
 43 48  1  0  0  0
 44 45  1  0  0  0
 45 46  2  0  0  0
 45 47  1  0  0  0
 47 58  1  0  0  0
 48 49  2  0  0  0
 48 50  1  0  0  0
 50 59  1  0  0  0
M  END
>  <AUTHOR>
    GENERATED BY OPEN BABEL 2.4.1

>  <CHROM.1>
84.50881399,-64.92360497,132.39572407,157.90572536,-83.28191203,149.34365647
37.05924884,146.46940134,-176.95081510,-49.51981984,36.91321555,-178.58344235
74.37567892,134.96373163,-163.75299832,-82.45751571,-173.17260561,99.10525530
-173.94209423,98.86786327,170.75668537,67.97580979,-168.20860415,0.40659015
115.79892856,-65.35600533,168.64999809,-103.71559413,-115.24800875,13.24057733
-7.90379999,-8.74298047,-64.25185631,-84.99016199,-174.53920112,-104.96179519
77.62859705,168.50735989,176.53173219,-0.80511629,-9.73053689,2.78448809
0.77272153,-0.34250470,2.05692039

>  <COMPND>
    UNNAMED

>  <MASTER>
        0    0    0    0    0    0    0    0  109    0  109    0

>  <Name>
FB1.pdb

>  <RI>
0

>  <Rbt.Current_Directory>
/cluster/tossine/F10/p3/0_clust01/stat

>  <Rbt.Executable>
rbdock/0.1.0

>  <Rbt.Library>
librxdock.so/0.1.0

>  <Rbt.Parameter_File>
/cluster/rxdock/data/scripts/dock.prm

>  <Rbt.Receptor>
rx_3.prm

>  <SCORE>
24.2201

>  <SCORE.INTER>
12.4076

>  <SCORE.INTER.CONST>
1

>  <SCORE.INTER.POLAR>
-1.91507

>  <SCORE.INTER.REPUL>
0.14102

>  <SCORE.INTER.ROT>
32

>  <SCORE.INTER.VDW>
-19.1863

>  <SCORE.INTER.norm>
0.248152

>  <SCORE.INTRA>
4.80385

>  <SCORE.INTRA.DIHEDRAL>
13.0107

>  <SCORE.INTRA.DIHEDRAL.0>
47.3121

>  <SCORE.INTRA.POLAR>
0.478077

>  <SCORE.INTRA.POLAR.0>
-1.47808

>  <SCORE.INTRA.REPUL>
0

>  <SCORE.INTRA.REPUL.0>
0

>  <SCORE.INTRA.VDW>
-3.32695

>  <SCORE.INTRA.VDW.0>
-2.78316

>  <SCORE.INTRA.norm>
0.0960771

>  <SCORE.RESTR>
7.00865

>  <SCORE.RESTR.CAVITY>
7.00865

>  <SCORE.RESTR.norm>
0.140173

>  <SCORE.SYSTEM>
0

>  <SCORE.SYSTEM.CONST>
0

>  <SCORE.SYSTEM.DIHEDRAL>
0

>  <SCORE.SYSTEM.norm>
0

>  <SCORE.heavy>
50

>  <SCORE.norm>
0.484402

$$$$
