FB1.pdb
  RxDock  10072012013D
librxdock.so/0.1.0
 59 58  0  0  0  0  0  0  0  0999 V2000
   -0.3096  -11.0597    0.3257 C   0  0  0  0  0  0
   -1.4504  -10.6978    1.2739 C   0  0  0  0  0  0
   -2.7904  -11.2869    0.8033 C   0  0  0  0  0  0
   -3.3983  -12.3090    1.7961 C   0  0  0  0  0  0
   -4.6045  -11.7719    2.6428 C   0  0  0  0  0  0
   -5.2763  -12.9731    3.3473 C   0  0  0  0  0  0
   -4.1936  -10.6554    3.6929 C   0  0  0  0  0  0
   -3.0487  -11.0364    4.7466 C   0  0  0  0  0  0
   -1.7450  -11.8839    4.4147 C   0  0  0  0  0  0
   -0.8502  -12.3332    5.7257 C   0  0  0  0  0  0
   -0.3429  -13.7568    5.5020 C   0  0  0  0  0  0
    0.3742  -11.3818    6.1007 C   0  0  0  0  0  0
    1.8457  -11.4920    5.4365 C   0  0  0  0  0  0
    2.0780  -11.4018    3.8892 C   0  0  0  0  0  0
    3.5001  -11.8391    3.3101 C   0  0  0  0  0  0
    3.9115  -11.7313    1.7890 C   0  0  0  0  0  0
    2.9872  -10.9748    0.7987 C   0  0  0  0  0  0
    3.5099  -10.8283   -0.6827 C   0  0  0  0  0  0
    2.5452  -10.1784   -1.6824 C   0  0  0  0  0  0
    2.1984  -10.9552   -2.9841 C   0  0  0  0  0  0
    1.1324  -10.4022   -3.9756 C   0  0  0  0  0  0
    1.2039  -10.9199   -5.4054 C   0  0  0  0  0  0
   -0.2276  -10.5579   -3.4257 N   0  0  0  0  0  0
    3.4367  -10.9790   -3.7389 O   0  0  0  0  0  0
    4.7176  -10.0601   -0.6510 O   0  0  0  0  0  0
    2.5851  -10.3912    5.9917 O   0  0  0  0  0  0
   -2.5377   -9.7780    5.2640 O   0  0  0  0  0  0
   -2.8920   -9.4430    6.5320 C   0  0  0  0  0  0
   -3.1410  -10.2161    7.4373 O   0  0  0  0  0  0
   -2.8276   -7.9465    6.6646 C   0  0  0  0  0  0
   -2.3353   -7.4972    8.0496 C   0  0  0  0  0  0
   -3.3235   -7.8502    9.1686 C   0  0  0  0  0  0
   -2.6217   -7.9549   10.5027 C   0  0  0  0  0  0
   -2.4522   -9.0130   11.0988 O   0  0  0  0  0  0
   -2.1967   -6.7745   10.9769 O   0  0  0  0  0  0
   -1.0016   -8.2216    8.2787 C   0  0  0  0  0  0
   -0.9171   -9.4308    8.4313 O   0  0  0  0  0  0
    0.0633   -7.4111    8.3475 O   0  0  0  0  0  0
   -3.9197   -9.3623    3.0200 O   0  0  0  0  0  0
   -4.9171   -8.8007    2.2404 C   0  0  0  0  0  0
   -6.0014   -8.4216    2.6637 O   0  0  0  0  0  0
   -4.5160   -8.6996    0.7629 C   0  0  0  0  0  0
   -4.8476   -7.3455    0.0621 C   0  0  0  0  0  0
   -6.3273   -6.9388   -0.0624 C   0  0  0  0  0  0
   -6.5144   -5.5971   -0.7100 C   0  0  0  0  0  0
   -5.6319   -4.7758   -0.9177 O   0  0  0  0  0  0
   -7.7869   -5.3758   -1.0736 O   0  0  0  0  0  0
   -4.0910   -6.1351    0.6232 C   0  0  0  0  0  0
   -4.3554   -5.6308    1.6967 O   0  0  0  0  0  0
   -3.0324   -5.7246   -0.1063 O   0  0  0  0  0  0
   -0.2101  -10.3521   -2.4278 H   0  0  0  0  0  0
   -0.4938  -11.5433   -3.4868 H   0  0  0  0  0  0
    3.9200  -11.7599   -3.3956 H   0  0  0  0  0  0
    4.8595   -9.7540    0.2637 H   0  0  0  0  0  0
    2.4823   -9.6295    5.3970 H   0  0  0  0  0  0
   -1.5435   -6.8271   11.7008 H   0  0  0  0  0  0
    0.4450   -7.3116    9.2548 H   0  0  0  0  0  0
   -8.2201   -4.9226   -0.3198 H   0  0  0  0  0  0
   -2.3304   -5.2575    0.3989 H   0  0  0  0  0  0
  1  2  1  0  0  0
  2  3  1  0  0  0
  3  4  1  0  0  0
  4  5  1  0  0  0
  5  6  1  0  0  0
  5  7  1  0  0  0
  7  8  1  0  0  0
  7 39  1  0  0  0
  8  9  1  0  0  0
  8 27  1  0  0  0
  9 10  1  0  0  0
 10 11  1  0  0  0
 10 12  1  0  0  0
 12 13  1  0  0  0
 13 14  1  0  0  0
 13 26  1  0  0  0
 14 15  1  0  0  0
 15 16  1  0  0  0
 16 17  1  0  0  0
 17 18  1  0  0  0
 18 19  1  0  0  0
 18 25  1  0  0  0
 19 20  1  0  0  0
 20 21  1  0  0  0
 20 24  1  0  0  0
 21 22  1  0  0  0
 21 23  1  0  0  0
 23 51  1  0  0  0
 23 52  1  0  0  0
 24 53  1  0  0  0
 25 54  1  0  0  0
 26 55  1  0  0  0
 27 28  1  0  0  0
 28 29  2  0  0  0
 28 30  1  0  0  0
 30 31  1  0  0  0
 31 32  1  0  0  0
 31 36  1  0  0  0
 32 33  1  0  0  0
 33 34  2  0  0  0
 33 35  1  0  0  0
 35 56  1  0  0  0
 36 37  2  0  0  0
 36 38  1  0  0  0
 38 57  1  0  0  0
 39 40  1  0  0  0
 40 41  2  0  0  0
 40 42  1  0  0  0
 42 43  1  0  0  0
 43 44  1  0  0  0
 43 48  1  0  0  0
 44 45  1  0  0  0
 45 46  2  0  0  0
 45 47  1  0  0  0
 47 58  1  0  0  0
 48 49  2  0  0  0
 48 50  1  0  0  0
 50 59  1  0  0  0
M  END
>  <AUTHOR>
    GENERATED BY OPEN BABEL 2.4.1

>  <CHROM.1>
117.02765285,104.31632951,168.20173752,-56.03133352,39.62445113,57.10663159
-170.81712619,106.42989010,140.73190813,-85.24428883,56.60537801,-166.69656612
-91.37589255,-176.55491276,9.27823398,176.13546685,175.32149199,-125.25858182
-5.33487939,174.69751146,158.88525679,85.77904561,39.59370812,29.40202178
-143.94335512,-66.52341388,155.81111488,-67.78242695,-109.91159346,-164.40175501
107.81504338,63.63530532,-135.34306569,-63.09355395,177.97092867,-73.54882403
-12.45783432,91.73379479,-153.68641070,-1.57721114,-9.53070254,2.95671401
-1.26632709,-0.48843246,1.60386267

>  <COMPND>
    UNNAMED

>  <MASTER>
        0    0    0    0    0    0    0    0  109    0  109    0

>  <Name>
FB1.pdb

>  <RI>
0

>  <Rbt.Current_Directory>
/cluster/tossine/F10/p3/0_clust01/stat

>  <Rbt.Executable>
rbdock/0.1.0

>  <Rbt.Library>
librxdock.so/0.1.0

>  <Rbt.Parameter_File>
/cluster/rxdock/data/scripts/dock.prm

>  <Rbt.Receptor>
rx_3.prm

>  <SCORE>
86.0366

>  <SCORE.INTER>
21.9217

>  <SCORE.INTER.CONST>
1

>  <SCORE.INTER.POLAR>
-1.66818

>  <SCORE.INTER.REPUL>
0.256761

>  <SCORE.INTER.ROT>
32

>  <SCORE.INTER.VDW>
-11.0903

>  <SCORE.INTER.norm>
0.438434

>  <SCORE.INTRA>
51.7856

>  <SCORE.INTRA.DIHEDRAL>
98.2162

>  <SCORE.INTRA.DIHEDRAL.0>
47.3121

>  <SCORE.INTRA.POLAR>
1.47808

>  <SCORE.INTRA.POLAR.0>
-1.47808

>  <SCORE.INTRA.REPUL>
0

>  <SCORE.INTRA.REPUL.0>
0

>  <SCORE.INTRA.VDW>
-2.34797

>  <SCORE.INTRA.VDW.0>
-2.78316

>  <SCORE.INTRA.norm>
1.03571

>  <SCORE.RESTR>
12.3293

>  <SCORE.RESTR.CAVITY>
12.3293

>  <SCORE.RESTR.norm>
0.246586

>  <SCORE.SYSTEM>
0

>  <SCORE.SYSTEM.CONST>
0

>  <SCORE.SYSTEM.DIHEDRAL>
0

>  <SCORE.SYSTEM.norm>
0

>  <SCORE.heavy>
50

>  <SCORE.norm>
1.72073

$$$$
