FB1.pdb
  RxDock  10072012103D
librxdock.so/0.1.0
 59 58  0  0  0  0  0  0  0  0999 V2000
   -5.5052  -11.4253    5.0513 C   0  0  0  0  0  0
   -4.4756  -10.4466    4.4915 C   0  0  0  0  0  0
   -5.0697   -9.5721    3.3749 C   0  0  0  0  0  0
   -4.0321   -8.6373    2.7046 C   0  0  0  0  0  0
   -2.7282   -9.3492    2.2012 C   0  0  0  0  0  0
   -2.1204   -8.4996    1.0612 C   0  0  0  0  0  0
   -1.6626   -9.6043    3.3489 C   0  0  0  0  0  0
   -0.4111  -10.5350    2.9833 C   0  0  0  0  0  0
    0.6441  -10.2386    1.8313 C   0  0  0  0  0  0
    1.0462  -11.5392    0.8997 C   0  0  0  0  0  0
   -0.1243  -12.5210    0.9060 C   0  0  0  0  0  0
    1.4701  -11.2220   -0.6052 C   0  0  0  0  0  0
    0.5244  -10.4569   -1.6724 C   0  0  0  0  0  0
    0.8422  -10.4274   -3.2068 C   0  0  0  0  0  0
    2.3542  -10.6446   -3.6713 C   0  0  0  0  0  0
    2.9576  -10.0891   -5.0211 C   0  0  0  0  0  0
    2.0412   -9.3195   -6.0087 C   0  0  0  0  0  0
    0.5411   -9.7997   -6.0995 C   0  0  0  0  0  0
   -0.4367   -8.8454   -6.7963 C   0  0  0  0  0  0
   -1.9413   -9.2359   -6.8427 C   0  0  0  0  0  0
   -2.7402   -9.4655   -5.5257 C   0  0  0  0  0  0
   -2.2982  -10.6376   -4.6607 C   0  0  0  0  0  0
   -2.8146   -8.2236   -4.7329 N   0  0  0  0  0  0
   -2.5933   -8.1113   -7.4861 O   0  0  0  0  0  0
    0.5201  -11.0549   -6.7880 O   0  0  0  0  0  0
   -0.7535  -11.1068   -1.5663 O   0  0  0  0  0  0
    0.3919  -10.6291    4.1912 O   0  0  0  0  0  0
    1.1413  -11.7512    4.3479 C   0  0  0  0  0  0
    1.1327  -12.7289    3.6243 O   0  0  0  0  0  0
    2.0668  -11.5463    5.5153 C   0  0  0  0  0  0
    3.3064  -10.7155    5.1472 C   0  0  0  0  0  0
    4.1724  -10.3779    6.3676 C   0  0  0  0  0  0
    5.3639   -9.5357    5.9744 C   0  0  0  0  0  0
    6.4981   -9.9836    5.8452 O   0  0  0  0  0  0
    5.0630   -8.2437    5.7766 O   0  0  0  0  0  0
    4.1074  -11.5699    4.1549 C   0  0  0  0  0  0
    3.9916  -12.7834    4.0746 O   0  0  0  0  0  0
    4.9848  -10.8797    3.4135 O   0  0  0  0  0  0
   -1.2403   -8.3303    3.9802 O   0  0  0  0  0  0
   -1.1466   -8.2783    5.3610 C   0  0  0  0  0  0
   -0.5036   -7.4438    5.9843 O   0  0  0  0  0  0
   -1.9475   -9.3952    6.0430 C   0  0  0  0  0  0
   -1.2352  -10.1097    7.2333 C   0  0  0  0  0  0
   -1.6416   -9.7112    8.6638 C   0  0  0  0  0  0
   -3.0999   -9.9347    8.9431 C   0  0  0  0  0  0
   -3.5691  -10.8639    9.5856 O   0  0  0  0  0  0
   -3.8759   -8.9737    8.4190 O   0  0  0  0  0  0
   -1.2613  -11.6417    7.1652 C   0  0  0  0  0  0
   -1.5314  -12.3406    8.1218 O   0  0  0  0  0  0
   -1.0681  -12.1705    5.9387 O   0  0  0  0  0  0
   -1.9749   -8.1414   -4.1614 H   0  0  0  0  0  0
   -3.5820   -8.3095   -4.0626 H   0  0  0  0  0  0
   -3.5344   -8.3778   -7.5542 H   0  0  0  0  0  0
    0.8960  -11.7326   -6.1964 H   0  0  0  0  0  0
   -0.6382  -12.0393   -1.8149 H   0  0  0  0  0  0
    4.2138   -7.9504    6.1591 H   0  0  0  0  0  0
    5.4587  -11.4181    2.7320 H   0  0  0  0  0  0
   -3.3115   -8.1778    8.3224 H   0  0  0  0  0  0
   -0.9681  -11.5173    5.2110 H   0  0  0  0  0  0
  1  2  1  0  0  0
  2  3  1  0  0  0
  3  4  1  0  0  0
  4  5  1  0  0  0
  5  6  1  0  0  0
  5  7  1  0  0  0
  7  8  1  0  0  0
  7 39  1  0  0  0
  8  9  1  0  0  0
  8 27  1  0  0  0
  9 10  1  0  0  0
 10 11  1  0  0  0
 10 12  1  0  0  0
 12 13  1  0  0  0
 13 14  1  0  0  0
 13 26  1  0  0  0
 14 15  1  0  0  0
 15 16  1  0  0  0
 16 17  1  0  0  0
 17 18  1  0  0  0
 18 19  1  0  0  0
 18 25  1  0  0  0
 19 20  1  0  0  0
 20 21  1  0  0  0
 20 24  1  0  0  0
 21 22  1  0  0  0
 21 23  1  0  0  0
 23 51  1  0  0  0
 23 52  1  0  0  0
 24 53  1  0  0  0
 25 54  1  0  0  0
 26 55  1  0  0  0
 27 28  1  0  0  0
 28 29  2  0  0  0
 28 30  1  0  0  0
 30 31  1  0  0  0
 31 32  1  0  0  0
 31 36  1  0  0  0
 32 33  1  0  0  0
 33 34  2  0  0  0
 33 35  1  0  0  0
 35 56  1  0  0  0
 36 37  2  0  0  0
 36 38  1  0  0  0
 38 57  1  0  0  0
 39 40  1  0  0  0
 40 41  2  0  0  0
 40 42  1  0  0  0
 42 43  1  0  0  0
 43 44  1  0  0  0
 43 48  1  0  0  0
 44 45  1  0  0  0
 45 46  2  0  0  0
 45 47  1  0  0  0
 47 58  1  0  0  0
 48 49  2  0  0  0
 48 50  1  0  0  0
 50 59  1  0  0  0
M  END
>  <AUTHOR>
    GENERATED BY OPEN BABEL 2.4.1

>  <CHROM.1>
-175.67673770,51.78945991,155.19821429,170.22860868,59.59096956,135.87225919
-136.06828514,152.33991902,26.90318981,-58.35130966,-166.82676333,-23.76646876
-61.83556535,-153.95768734,-2.22166654,-34.48820612,165.46674856,-176.67674177
71.54160085,59.07073627,-64.61363988,177.32092945,-84.98386638,-5.74112434
-80.08996648,173.79462117,-178.72728956,-21.86007793,-101.76394736,17.71368719
-176.12835815,160.33902467,136.97775368,101.49030121,59.13790791,-134.64718299
102.72990735,-24.10146686,-2.43844465,-0.13478912,-10.22053320,2.02683807
1.56635620,-0.12920044,1.62051607

>  <COMPND>
    UNNAMED

>  <MASTER>
        0    0    0    0    0    0    0    0  109    0  109    0

>  <Name>
FB1.pdb

>  <RI>
0

>  <Rbt.Current_Directory>
/cluster/tossine/F10/p3/0_clust01/stat

>  <Rbt.Executable>
rbdock/0.1.0

>  <Rbt.Library>
librxdock.so/0.1.0

>  <Rbt.Parameter_File>
/cluster/rxdock/data/scripts/dock.prm

>  <Rbt.Receptor>
rx_3.prm

>  <SCORE>
29.9374

>  <SCORE.INTER>
13.0062

>  <SCORE.INTER.CONST>
1

>  <SCORE.INTER.POLAR>
-1.20551

>  <SCORE.INTER.REPUL>
0.0388572

>  <SCORE.INTER.ROT>
32

>  <SCORE.INTER.VDW>
-20.4894

>  <SCORE.INTER.norm>
0.260124

>  <SCORE.INTRA>
15.0487

>  <SCORE.INTRA.DIHEDRAL>
15.3338

>  <SCORE.INTRA.DIHEDRAL.0>
47.3121

>  <SCORE.INTRA.POLAR>
1.23916

>  <SCORE.INTRA.POLAR.0>
-1.47808

>  <SCORE.INTRA.REPUL>
0

>  <SCORE.INTRA.REPUL.0>
0

>  <SCORE.INTRA.VDW>
3.16869

>  <SCORE.INTRA.VDW.0>
-2.78316

>  <SCORE.INTRA.norm>
0.300974

>  <SCORE.RESTR>
1.88248

>  <SCORE.RESTR.CAVITY>
1.88248

>  <SCORE.RESTR.norm>
0.0376496

>  <SCORE.SYSTEM>
0

>  <SCORE.SYSTEM.CONST>
0

>  <SCORE.SYSTEM.DIHEDRAL>
0

>  <SCORE.SYSTEM.norm>
0

>  <SCORE.heavy>
50

>  <SCORE.norm>
0.598748

$$$$
