FB1.pdb
  RxDock  10072012073D
librxdock.so/0.1.0
 59 58  0  0  0  0  0  0  0  0999 V2000
   -3.1869  -11.1920    8.8944 C   0  0  0  0  0  0
   -2.9032   -9.6958    8.7837 C   0  0  0  0  0  0
   -1.4013   -9.3903    8.9073 C   0  0  0  0  0  0
   -0.8553   -8.5025    7.7613 C   0  0  0  0  0  0
   -1.2892   -8.9425    6.3195 C   0  0  0  0  0  0
   -1.2466   -7.7005    5.3995 C   0  0  0  0  0  0
   -0.4075  -10.1200    5.7246 C   0  0  0  0  0  0
   -0.5063  -10.3744    4.1461 C   0  0  0  0  0  0
    0.2031  -11.5637    3.3647 C   0  0  0  0  0  0
    0.6679  -11.2082    1.8223 C   0  0  0  0  0  0
    1.7992  -12.1555    1.4262 C   0  0  0  0  0  0
   -0.4791  -11.2520    0.7145 C   0  0  0  0  0  0
   -0.4815  -10.3453   -0.6258 C   0  0  0  0  0  0
   -1.2056  -10.7929   -1.9416 C   0  0  0  0  0  0
   -0.7125  -10.1705   -3.3268 C   0  0  0  0  0  0
   -1.3208  -10.5443   -4.7356 C   0  0  0  0  0  0
   -2.7436  -10.0511   -5.1093 C   0  0  0  0  0  0
   -2.9254   -8.4946   -5.2924 C   0  0  0  0  0  0
   -3.7713   -8.0457   -6.4905 C   0  0  0  0  0  0
   -3.8933   -6.5221   -6.7774 C   0  0  0  0  0  0
   -4.5225   -6.0155   -8.1089 C   0  0  0  0  0  0
   -3.7096   -6.2496   -9.3745 C   0  0  0  0  0  0
   -5.8994   -6.5215   -8.2654 N   0  0  0  0  0  0
   -4.7674   -6.0205   -5.7343 O   0  0  0  0  0  0
   -3.5183   -7.9755   -4.0971 O   0  0  0  0  0  0
   -1.1261   -9.1192   -0.2413 O   0  0  0  0  0  0
   -1.9193  -10.5410    3.8490 O   0  0  0  0  0  0
   -2.6130  -11.4166    4.6220 C   0  0  0  0  0  0
   -2.4432  -12.6198    4.6757 O   0  0  0  0  0  0
   -3.5671  -10.6376    5.4847 C   0  0  0  0  0  0
   -5.0220  -11.1086    5.3301 C   0  0  0  0  0  0
   -5.4111  -11.3467    3.8655 C   0  0  0  0  0  0
   -5.0035  -10.1796    2.9965 C   0  0  0  0  0  0
   -5.5643   -9.0893    3.0183 O   0  0  0  0  0  0
   -3.9626  -10.4484    2.1945 O   0  0  0  0  0  0
   -5.1273  -12.4196    6.1214 C   0  0  0  0  0  0
   -5.5154  -12.4708    7.2786 O   0  0  0  0  0  0
   -4.7102  -13.5039    5.4533 O   0  0  0  0  0  0
    0.9996  -10.0194    6.1827 O   0  0  0  0  0  0
    1.7869  -11.1583    6.1485 C   0  0  0  0  0  0
    1.3639  -12.2919    5.9634 O   0  0  0  0  0  0
    3.2731  -10.8475    6.3700 C   0  0  0  0  0  0
    4.0575  -10.3585    5.1131 C   0  0  0  0  0  0
    5.5104   -9.8867    5.3055 C   0  0  0  0  0  0
    6.1655   -9.4662    4.0215 C   0  0  0  0  0  0
    6.0471   -8.3734    3.4846 O   0  0  0  0  0  0
    6.9408  -10.4299    3.5014 O   0  0  0  0  0  0
    4.0528  -11.3418    3.9361 C   0  0  0  0  0  0
    4.0489  -10.9822    2.7753 O   0  0  0  0  0  0
    4.1617  -12.6450    4.2693 O   0  0  0  0  0  0
   -5.8734   -7.5354   -8.3650 H   0  0  0  0  0  0
   -6.2743   -6.1792   -9.1530 H   0  0  0  0  0  0
   -4.1850   -5.9188   -4.9521 H   0  0  0  0  0  0
   -4.4864   -7.9760   -4.2127 H   0  0  0  0  0  0
   -1.0237   -8.4843   -0.9700 H   0  0  0  0  0  0
   -3.7170   -9.7332    1.5768 H   0  0  0  0  0  0
   -3.7601  -13.4760    5.1788 H   0  0  0  0  0  0
    6.7447  -11.2496    4.0023 H   0  0  0  0  0  0
    4.2165  -12.8284    5.2335 H   0  0  0  0  0  0
  1  2  1  0  0  0
  2  3  1  0  0  0
  3  4  1  0  0  0
  4  5  1  0  0  0
  5  6  1  0  0  0
  5  7  1  0  0  0
  7  8  1  0  0  0
  7 39  1  0  0  0
  8  9  1  0  0  0
  8 27  1  0  0  0
  9 10  1  0  0  0
 10 11  1  0  0  0
 10 12  1  0  0  0
 12 13  1  0  0  0
 13 14  1  0  0  0
 13 26  1  0  0  0
 14 15  1  0  0  0
 15 16  1  0  0  0
 16 17  1  0  0  0
 17 18  1  0  0  0
 18 19  1  0  0  0
 18 25  1  0  0  0
 19 20  1  0  0  0
 20 21  1  0  0  0
 20 24  1  0  0  0
 21 22  1  0  0  0
 21 23  1  0  0  0
 23 51  1  0  0  0
 23 52  1  0  0  0
 24 53  1  0  0  0
 25 54  1  0  0  0
 26 55  1  0  0  0
 27 28  1  0  0  0
 28 29  2  0  0  0
 28 30  1  0  0  0
 30 31  1  0  0  0
 31 32  1  0  0  0
 31 36  1  0  0  0
 32 33  1  0  0  0
 33 34  2  0  0  0
 33 35  1  0  0  0
 35 56  1  0  0  0
 36 37  2  0  0  0
 36 38  1  0  0  0
 38 57  1  0  0  0
 39 40  1  0  0  0
 40 41  2  0  0  0
 40 42  1  0  0  0
 42 43  1  0  0  0
 43 44  1  0  0  0
 43 48  1  0  0  0
 44 45  1  0  0  0
 45 46  2  0  0  0
 45 47  1  0  0  0
 47 58  1  0  0  0
 48 49  2  0  0  0
 48 50  1  0  0  0
 50 59  1  0  0  0
M  END
>  <AUTHOR>
    GENERATED BY OPEN BABEL 2.4.1

>  <CHROM.1>
128.73939458,-46.92718305,154.63117706,-164.19602519,-175.17656955,158.58541672
-147.64494600,-49.66038832,156.39617853,150.61023317,152.95271914,-156.63991240
170.88214714,178.68570211,71.54911421,66.85444615,137.24614068,-175.50760840
-91.99089928,169.22306700,-69.88204062,80.41085311,-65.42320481,-65.32478199
124.98014277,-43.87562377,-48.33242838,94.86350918,-72.12636942,175.88597543
60.83267098,-11.78474501,-81.91326177,173.50704590,178.90907825,146.24009040
82.29323076,11.31016757,1.05071850,-1.06266136,-10.04682841,2.06309669,1.24051913
-0.01216391,1.81252212

>  <COMPND>
    UNNAMED

>  <MASTER>
        0    0    0    0    0    0    0    0  109    0  109    0

>  <Name>
FB1.pdb

>  <RI>
0

>  <Rbt.Current_Directory>
/cluster/tossine/F10/p3/0_clust01/stat

>  <Rbt.Executable>
rbdock/0.1.0

>  <Rbt.Library>
librxdock.so/0.1.0

>  <Rbt.Parameter_File>
/cluster/rxdock/data/scripts/dock.prm

>  <Rbt.Receptor>
rx_3.prm

>  <SCORE>
46.0961

>  <SCORE.INTER>
14.5443

>  <SCORE.INTER.CONST>
1

>  <SCORE.INTER.POLAR>
-0.767382

>  <SCORE.INTER.REPUL>
0.123345

>  <SCORE.INTER.ROT>
32

>  <SCORE.INTER.VDW>
-20.8633

>  <SCORE.INTER.norm>
0.290886

>  <SCORE.INTRA>
25.8502

>  <SCORE.INTRA.DIHEDRAL>
47.4134

>  <SCORE.INTRA.DIHEDRAL.0>
47.3121

>  <SCORE.INTRA.POLAR>
0.726754

>  <SCORE.INTRA.POLAR.0>
-1.47808

>  <SCORE.INTRA.REPUL>
0

>  <SCORE.INTRA.REPUL.0>
0

>  <SCORE.INTRA.VDW>
-0.327446

>  <SCORE.INTRA.VDW.0>
-2.78316

>  <SCORE.INTRA.norm>
0.517004

>  <SCORE.RESTR>
5.70163

>  <SCORE.RESTR.CAVITY>
5.70163

>  <SCORE.RESTR.norm>
0.114033

>  <SCORE.SYSTEM>
0

>  <SCORE.SYSTEM.CONST>
0

>  <SCORE.SYSTEM.DIHEDRAL>
0

>  <SCORE.SYSTEM.norm>
0

>  <SCORE.heavy>
50

>  <SCORE.norm>
0.921922

$$$$
