FB1.pdb
  RxDock  10072012053D
librxdock.so/0.1.0
 59 58  0  0  0  0  0  0  0  0999 V2000
   -3.0741   -5.7827  -13.1147 C   0  0  0  0  0  0
   -1.9161   -6.1314  -12.1827 C   0  0  0  0  0  0
   -0.8889   -7.0471  -12.8687 C   0  0  0  0  0  0
    0.0522   -7.7728  -11.8751 C   0  0  0  0  0  0
   -0.6582   -8.7849  -10.9100 C   0  0  0  0  0  0
    0.1227  -10.1189  -10.9451 C   0  0  0  0  0  0
   -0.7996   -8.2491   -9.4231 C   0  0  0  0  0  0
    0.5100   -8.3089   -8.5025 C   0  0  0  0  0  0
    1.1160   -9.6303   -7.8583 C   0  0  0  0  0  0
    0.4666  -10.0610   -6.4043 C   0  0  0  0  0  0
    0.7409  -11.5458   -6.1712 C   0  0  0  0  0  0
    0.9563   -9.2216   -5.1392 C   0  0  0  0  0  0
    2.4660   -9.2542   -4.5575 C   0  0  0  0  0  0
    3.1138  -10.5568   -3.9747 C   0  0  0  0  0  0
    2.5796  -11.1072   -2.5744 C   0  0  0  0  0  0
    2.5425  -10.2596   -1.2422 C   0  0  0  0  0  0
    2.8269  -10.9557    0.1151 C   0  0  0  0  0  0
    1.6127  -11.0734    1.1156 C   0  0  0  0  0  0
    1.9084  -11.7340    2.4679 C   0  0  0  0  0  0
    0.7089  -12.1024    3.3865 C   0  0  0  0  0  0
    0.9323  -12.9323    4.6852 C   0  0  0  0  0  0
    2.0277  -12.4426    5.6221 C   0  0  0  0  0  0
   -0.3372  -13.1227    5.4122 N   0  0  0  0  0  0
    0.1885  -10.8270    3.8408 O   0  0  0  0  0  0
    1.1076   -9.7552    1.3542 O   0  0  0  0  0  0
    3.2988   -8.8863   -5.6700 O   0  0  0  0  0  0
    1.5954   -7.7691   -9.3043 O   0  0  0  0  0  0
    1.5654   -6.4364   -9.5658 C   0  0  0  0  0  0
    0.5932   -5.7931   -9.9130 O   0  0  0  0  0  0
    2.9193   -5.8600   -9.2560 C   0  0  0  0  0  0
    3.9297   -6.0821  -10.3928 C   0  0  0  0  0  0
    5.1110   -5.1054  -10.3296 C   0  0  0  0  0  0
    4.8281   -3.8552  -11.1298 C   0  0  0  0  0  0
    4.2586   -2.8708  -10.6713 O   0  0  0  0  0  0
    5.2625   -3.9221  -12.3970 O   0  0  0  0  0  0
    4.4314   -7.5242  -10.2355 C   0  0  0  0  0  0
    3.9921   -8.4582  -10.8891 O   0  0  0  0  0  0
    5.3606   -7.6857   -9.2835 O   0  0  0  0  0  0
   -1.4363   -6.9098   -9.3948 O   0  0  0  0  0  0
   -2.8190   -6.8379   -9.3647 C   0  0  0  0  0  0
   -3.4853   -5.9937   -9.9492 O   0  0  0  0  0  0
   -3.4428   -7.9469   -8.5072 C   0  0  0  0  0  0
   -3.8982   -7.5219   -7.0767 C   0  0  0  0  0  0
   -2.8528   -7.5497   -5.9467 C   0  0  0  0  0  0
   -2.7902   -8.8719   -5.2379 C   0  0  0  0  0  0
   -3.6392   -9.7511   -5.2914 O   0  0  0  0  0  0
   -1.6635   -9.0188   -4.5243 O   0  0  0  0  0  0
   -4.6016   -6.1607   -7.0096 C   0  0  0  0  0  0
   -4.5285   -5.4266   -6.0439 O   0  0  0  0  0  0
   -5.2268   -5.7751   -8.1417 O   0  0  0  0  0  0
   -0.1765  -12.9796    6.4083 H   0  0  0  0  0  0
   -0.6176  -14.1025    5.3287 H   0  0  0  0  0  0
    0.9101  -10.4456    4.3841 H   0  0  0  0  0  0
    0.6885   -9.4368    0.5335 H   0  0  0  0  0  0
    4.1175   -8.4990   -5.3176 H   0  0  0  0  0  0
    5.2171   -3.0851  -12.8977 H   0  0  0  0  0  0
    5.6924   -8.6128   -9.1874 H   0  0  0  0  0  0
   -1.1369   -8.2028   -4.6589 H   0  0  0  0  0  0
   -5.6094   -4.8699   -8.1224 H   0  0  0  0  0  0
  1  2  1  0  0  0
  2  3  1  0  0  0
  3  4  1  0  0  0
  4  5  1  0  0  0
  5  6  1  0  0  0
  5  7  1  0  0  0
  7  8  1  0  0  0
  7 39  1  0  0  0
  8  9  1  0  0  0
  8 27  1  0  0  0
  9 10  1  0  0  0
 10 11  1  0  0  0
 10 12  1  0  0  0
 12 13  1  0  0  0
 13 14  1  0  0  0
 13 26  1  0  0  0
 14 15  1  0  0  0
 15 16  1  0  0  0
 16 17  1  0  0  0
 17 18  1  0  0  0
 18 19  1  0  0  0
 18 25  1  0  0  0
 19 20  1  0  0  0
 20 21  1  0  0  0
 20 24  1  0  0  0
 21 22  1  0  0  0
 21 23  1  0  0  0
 23 51  1  0  0  0
 23 52  1  0  0  0
 24 53  1  0  0  0
 25 54  1  0  0  0
 26 55  1  0  0  0
 27 28  1  0  0  0
 28 29  2  0  0  0
 28 30  1  0  0  0
 30 31  1  0  0  0
 31 32  1  0  0  0
 31 36  1  0  0  0
 32 33  1  0  0  0
 33 34  2  0  0  0
 33 35  1  0  0  0
 35 56  1  0  0  0
 36 37  2  0  0  0
 36 38  1  0  0  0
 38 57  1  0  0  0
 39 40  1  0  0  0
 40 41  2  0  0  0
 40 42  1  0  0  0
 42 43  1  0  0  0
 43 44  1  0  0  0
 43 48  1  0  0  0
 44 45  1  0  0  0
 45 46  2  0  0  0
 45 47  1  0  0  0
 47 58  1  0  0  0
 48 49  2  0  0  0
 48 50  1  0  0  0
 50 59  1  0  0  0
M  END
>  <AUTHOR>
    GENERATED BY OPEN BABEL 2.4.1

>  <CHROM.1>
-162.32571442,64.27463645,130.93328653,-77.75833290,-74.43697421,86.86641648
-86.16301974,70.01982364,159.27500984,-66.83536584,-63.09460554,-70.81896483
154.39408342,-55.80450609,-144.17495518,-112.08370520,-178.66572589,-169.38880439
69.01199804,172.31514775,50.18908686,-64.95835357,-137.04766335,-44.59536410
81.10218732,159.46953973,-90.70568178,98.54926988,87.73650587,-171.09157647
-179.36683949,-142.85929392,101.09832990,-85.90791605,-89.80149081,-148.30741284
-16.16565199,-0.86188947,-174.88544061,0.50599462,-8.32129413,-6.27027282
1.59147825,0.01356661,-1.18784675

>  <COMPND>
    UNNAMED

>  <MASTER>
        0    0    0    0    0    0    0    0  109    0  109    0

>  <Name>
FB1.pdb

>  <RI>
0

>  <Rbt.Current_Directory>
/cluster/tossine/F10/p3/0_clust01/stat

>  <Rbt.Executable>
rbdock/0.1.0

>  <Rbt.Library>
librxdock.so/0.1.0

>  <Rbt.Parameter_File>
/cluster/rxdock/data/scripts/dock.prm

>  <Rbt.Receptor>
rx_3.prm

>  <SCORE>
49.4537

>  <SCORE.INTER>
18.5981

>  <SCORE.INTER.CONST>
1

>  <SCORE.INTER.POLAR>
-1.10554

>  <SCORE.INTER.REPUL>
0.506503

>  <SCORE.INTER.ROT>
32

>  <SCORE.INTER.VDW>
-17.5755

>  <SCORE.INTER.norm>
0.371963

>  <SCORE.INTRA>
23.236

>  <SCORE.INTRA.DIHEDRAL>
27.7265

>  <SCORE.INTRA.DIHEDRAL.0>
47.3121

>  <SCORE.INTRA.POLAR>
1.47808

>  <SCORE.INTRA.POLAR.0>
-1.47808

>  <SCORE.INTRA.REPUL>
0

>  <SCORE.INTRA.REPUL.0>
0

>  <SCORE.INTRA.VDW>
4.34728

>  <SCORE.INTRA.VDW.0>
-2.78316

>  <SCORE.INTRA.norm>
0.464719

>  <SCORE.RESTR>
7.61961

>  <SCORE.RESTR.CAVITY>
7.61961

>  <SCORE.RESTR.norm>
0.152392

>  <SCORE.SYSTEM>
0

>  <SCORE.SYSTEM.CONST>
0

>  <SCORE.SYSTEM.DIHEDRAL>
0

>  <SCORE.SYSTEM.norm>
0

>  <SCORE.heavy>
50

>  <SCORE.norm>
0.989074

$$$$
