FB1.pdb
  RxDock  10072011563D
librxdock.so/0.1.0
 59 58  0  0  0  0  0  0  0  0999 V2000
    4.5945  -10.7659   -4.5065 C   0  0  0  0  0  0
    3.9452   -9.5934   -3.7751 C   0  0  0  0  0  0
    2.6557  -10.0168   -3.0525 C   0  0  0  0  0  0
    2.9001  -10.9903   -1.8725 C   0  0  0  0  0  0
    1.6619  -11.2207   -0.9375 C   0  0  0  0  0  0
    1.8830  -12.5353   -0.1542 C   0  0  0  0  0  0
    1.3810  -10.0116    0.0508 C   0  0  0  0  0  0
   -0.1373   -9.5171    0.1794 C   0  0  0  0  0  0
   -1.2003   -9.5093   -1.0030 C   0  0  0  0  0  0
   -1.1483  -10.8233   -1.9990 C   0  0  0  0  0  0
   -2.1763  -11.8428   -1.5113 C   0  0  0  0  0  0
   -1.3736  -10.5375   -3.5522 C   0  0  0  0  0  0
   -2.6262   -9.7050   -4.1495 C   0  0  0  0  0  0
   -2.7583   -8.1522   -3.9841 C   0  0  0  0  0  0
   -3.6406   -7.3498   -5.0458 C   0  0  0  0  0  0
   -5.1263   -6.8783   -4.7912 C   0  0  0  0  0  0
   -5.4160   -5.8250   -3.6893 C   0  0  0  0  0  0
   -5.5872   -4.3316   -4.1683 C   0  0  0  0  0  0
   -6.2431   -3.3690   -3.1705 C   0  0  0  0  0  0
   -7.3058   -2.3662   -3.7030 C   0  0  0  0  0  0
   -6.9154   -1.2811   -4.7496 C   0  0  0  0  0  0
   -6.4243   -1.7868   -6.0989 C   0  0  0  0  0  0
   -8.0030   -0.2988   -4.9187 N   0  0  0  0  0  0
   -8.2910   -3.1950   -4.3710 O   0  0  0  0  0  0
   -4.2913   -3.8243   -4.5048 O   0  0  0  0  0  0
   -2.5752   -9.9282   -5.5687 O   0  0  0  0  0  0
   -0.7482  -10.3437    1.2071 O   0  0  0  0  0  0
   -1.7199   -9.7700    1.9634 C   0  0  0  0  0  0
   -2.5132   -8.9248    1.5950 O   0  0  0  0  0  0
   -1.7218  -10.4284    3.3153 C   0  0  0  0  0  0
   -2.0848   -9.4531    4.4465 C   0  0  0  0  0  0
   -3.5725   -9.0787    4.4460 C   0  0  0  0  0  0
   -3.7742   -7.6471    4.0064 C   0  0  0  0  0  0
   -3.8692   -7.3049    2.8327 O   0  0  0  0  0  0
   -3.8417   -6.7793    5.0268 O   0  0  0  0  0  0
   -1.7243  -10.1710    5.7544 C   0  0  0  0  0  0
   -2.5473  -10.4403    6.6161 O   0  0  0  0  0  0
   -0.4185  -10.4362    5.8979 O   0  0  0  0  0  0
    2.0008  -10.2491    1.3772 O   0  0  0  0  0  0
    3.3828  -10.2729    1.4641 C   0  0  0  0  0  0
    4.1427   -9.8977    0.5808 O   0  0  0  0  0  0
    3.8739  -10.8278    2.8077 C   0  0  0  0  0  0
    2.8001  -10.9186    3.9362 C   0  0  0  0  0  0
    2.6921  -12.2348    4.7276 C   0  0  0  0  0  0
    1.7097  -13.2000    4.1295 C   0  0  0  0  0  0
    1.9935  -14.1860    3.4633 O   0  0  0  0  0  0
    0.4383  -12.8829    4.4178 O   0  0  0  0  0  0
    2.8527   -9.7777    4.9597 C   0  0  0  0  0  0
    3.8824   -9.4190    5.4964 O   0  0  0  0  0  0
    1.6913   -9.1178    5.1520 O   0  0  0  0  0  0
   -8.6129   -0.3319   -4.1030 H   0  0  0  0  0  0
   -8.5921   -0.5949   -5.7003 H   0  0  0  0  0  0
   -8.6793   -3.7418   -3.6557 H   0  0  0  0  0  0
   -4.3976   -2.9129   -4.8342 H   0  0  0  0  0  0
   -1.7280   -9.5834   -5.8971 H   0  0  0  0  0  0
   -4.0253   -5.8538    4.7751 H   0  0  0  0  0  0
   -0.1706  -10.8101    6.7796 H   0  0  0  0  0  0
    0.4710  -12.1161    5.0280 H   0  0  0  0  0  0
    0.8800   -9.6168    4.9095 H   0  0  0  0  0  0
  1  2  1  0  0  0
  2  3  1  0  0  0
  3  4  1  0  0  0
  4  5  1  0  0  0
  5  6  1  0  0  0
  5  7  1  0  0  0
  7  8  1  0  0  0
  7 39  1  0  0  0
  8  9  1  0  0  0
  8 27  1  0  0  0
  9 10  1  0  0  0
 10 11  1  0  0  0
 10 12  1  0  0  0
 12 13  1  0  0  0
 13 14  1  0  0  0
 13 26  1  0  0  0
 14 15  1  0  0  0
 15 16  1  0  0  0
 16 17  1  0  0  0
 17 18  1  0  0  0
 18 19  1  0  0  0
 18 25  1  0  0  0
 19 20  1  0  0  0
 20 21  1  0  0  0
 20 24  1  0  0  0
 21 22  1  0  0  0
 21 23  1  0  0  0
 23 51  1  0  0  0
 23 52  1  0  0  0
 24 53  1  0  0  0
 25 54  1  0  0  0
 26 55  1  0  0  0
 27 28  1  0  0  0
 28 29  2  0  0  0
 28 30  1  0  0  0
 30 31  1  0  0  0
 31 32  1  0  0  0
 31 36  1  0  0  0
 32 33  1  0  0  0
 33 34  2  0  0  0
 33 35  1  0  0  0
 35 56  1  0  0  0
 36 37  2  0  0  0
 36 38  1  0  0  0
 38 57  1  0  0  0
 39 40  1  0  0  0
 40 41  2  0  0  0
 40 42  1  0  0  0
 42 43  1  0  0  0
 43 44  1  0  0  0
 43 48  1  0  0  0
 44 45  1  0  0  0
 45 46  2  0  0  0
 45 47  1  0  0  0
 47 58  1  0  0  0
 48 49  2  0  0  0
 48 50  1  0  0  0
 50 59  1  0  0  0
M  END
>  <AUTHOR>
    GENERATED BY OPEN BABEL 2.4.1

>  <CHROM.1>
67.03418596,168.36213159,160.27181968,134.19977819,-34.37090207,66.85212160
39.89558004,148.07815452,94.98232614,-51.90253443,72.17135545,155.70935374
-60.88941615,99.91353571,64.89448496,98.52717330,163.73087247,-137.12513993
177.83182391,-62.67788268,62.40142130,64.53573624,20.40087722,32.82268036
145.88426619,72.71715948,-108.98477480,-118.81915173,85.87266908,-176.48519775
173.75991736,12.66224121,-14.78661926,132.07681326,-91.13073802,-48.41385554
102.74632079,-4.64342766,22.60553140,-1.21860776,-8.76102778,0.10122394,-0.74505540
0.65046658,-1.41090814

>  <COMPND>
    UNNAMED

>  <MASTER>
        0    0    0    0    0    0    0    0  109    0  109    0

>  <Name>
FB1.pdb

>  <RI>
0

>  <Rbt.Current_Directory>
/cluster/tossine/F10/p3/0_clust01/stat

>  <Rbt.Executable>
rbdock/0.1.0

>  <Rbt.Library>
librxdock.so/0.1.0

>  <Rbt.Parameter_File>
/cluster/rxdock/data/scripts/dock.prm

>  <Rbt.Receptor>
rx_3.prm

>  <SCORE>
26.5102

>  <SCORE.INTER>
6.00664

>  <SCORE.INTER.CONST>
1

>  <SCORE.INTER.POLAR>
-2.83637

>  <SCORE.INTER.REPUL>
0.0236017

>  <SCORE.INTER.ROT>
32

>  <SCORE.INTER.VDW>
-21.8677

>  <SCORE.INTER.norm>
0.120133

>  <SCORE.INTRA>
12.358

>  <SCORE.INTRA.DIHEDRAL>
26.912

>  <SCORE.INTRA.DIHEDRAL.0>
47.3121

>  <SCORE.INTRA.POLAR>
-0.18083

>  <SCORE.INTRA.POLAR.0>
-1.47808

>  <SCORE.INTRA.REPUL>
0.0334715

>  <SCORE.INTRA.REPUL.0>
0

>  <SCORE.INTRA.VDW>
-0.650498

>  <SCORE.INTRA.VDW.0>
-2.78316

>  <SCORE.INTRA.norm>
0.247161

>  <SCORE.RESTR>
8.14551

>  <SCORE.RESTR.CAVITY>
8.14551

>  <SCORE.RESTR.norm>
0.16291

>  <SCORE.SYSTEM>
0

>  <SCORE.SYSTEM.CONST>
0

>  <SCORE.SYSTEM.DIHEDRAL>
0

>  <SCORE.SYSTEM.norm>
0

>  <SCORE.heavy>
50

>  <SCORE.norm>
0.530204

$$$$
