FB1.pdb
  RxDock  10072012013D
librxdock.so/0.1.0
 59 58  0  0  0  0  0  0  0  0999 V2000
   -4.4486  -13.9128    5.9524 C   0  0  0  0  0  0
   -4.1178  -12.5975    5.2509 C   0  0  0  0  0  0
   -2.8639  -11.9350    5.8450 C   0  0  0  0  0  0
   -1.5786  -12.7831    5.6762 C   0  0  0  0  0  0
   -0.2819  -12.1486    6.2898 C   0  0  0  0  0  0
    0.7236  -13.2861    6.5823 C   0  0  0  0  0  0
    0.3738  -11.0340    5.3702 C   0  0  0  0  0  0
    1.0667  -11.5283    4.0131 C   0  0  0  0  0  0
    0.2998  -11.8447    2.6567 C   0  0  0  0  0  0
   -0.9314  -10.8093    2.2914 C   0  0  0  0  0  0
   -1.4215  -11.1180    0.8776 C   0  0  0  0  0  0
   -2.1692  -10.8058    3.2977 C   0  0  0  0  0  0
   -3.5041   -9.9148    3.0914 C   0  0  0  0  0  0
   -3.4770   -8.5082    2.4009 C   0  0  0  0  0  0
   -4.7883   -7.6007    2.4791 C   0  0  0  0  0  0
   -5.2739   -6.6394    1.3239 C   0  0  0  0  0  0
   -4.2428   -6.0879    0.3040 C   0  0  0  0  0  0
   -4.7152   -4.8793   -0.5934 C   0  0  0  0  0  0
   -5.1761   -5.2275   -2.0142 C   0  0  0  0  0  0
   -5.4562   -4.0620   -3.0049 C   0  0  0  0  0  0
   -4.9042   -4.1106   -4.4604 C   0  0  0  0  0  0
   -4.9159   -5.4706   -5.1444 C   0  0  0  0  0  0
   -5.5556   -3.0905   -5.3038 N   0  0  0  0  0  0
   -6.8992   -4.0427   -3.1511 O   0  0  0  0  0  0
   -5.7900   -4.2195    0.0844 O   0  0  0  0  0  0
   -4.3628  -10.7210    2.2672 O   0  0  0  0  0  0
    2.0294  -10.5013    3.6510 O   0  0  0  0  0  0
    3.2733  -10.9185    3.2990 C   0  0  0  0  0  0
    4.2194  -11.0720    4.0479 O   0  0  0  0  0  0
    3.2641  -11.2603    1.8346 C   0  0  0  0  0  0
    3.3940  -10.0188    0.9378 C   0  0  0  0  0  0
    4.8316   -9.7903    0.4534 C   0  0  0  0  0  0
    5.5120   -8.7068    1.2573 C   0  0  0  0  0  0
    5.9037   -7.6494    0.7755 O   0  0  0  0  0  0
    5.6471   -9.0105    2.5567 O   0  0  0  0  0  0
    2.4686  -10.2660   -0.2616 C   0  0  0  0  0  0
    2.8666  -10.6961   -1.3335 O   0  0  0  0  0  0
    1.1898   -9.9239   -0.0532 O   0  0  0  0  0  0
   -0.5672   -9.9119    5.1354 O   0  0  0  0  0  0
   -0.7581   -8.9885    6.1498 C   0  0  0  0  0  0
    0.1430   -8.4202    6.7528 O   0  0  0  0  0  0
   -2.2438   -8.7454    6.4461 C   0  0  0  0  0  0
   -2.7164   -9.1141    7.8866 C   0  0  0  0  0  0
   -2.3437  -10.5028    8.4370 C   0  0  0  0  0  0
   -3.5427  -11.3376    8.7835 C   0  0  0  0  0  0
   -4.5819  -11.3954    8.1406 O   0  0  0  0  0  0
   -3.3596  -12.0605    9.8989 O   0  0  0  0  0  0
   -2.3448   -8.0860    8.9623 C   0  0  0  0  0  0
   -1.3538   -8.1874    9.6583 O   0  0  0  0  0  0
   -3.1360   -6.9941    9.0182 O   0  0  0  0  0  0
   -6.4772   -3.4254   -5.5814 H   0  0  0  0  0  0
   -5.0317   -3.0062   -6.1778 H   0  0  0  0  0  0
   -7.0718   -3.3283   -3.8001 H   0  0  0  0  0  0
   -6.5855   -4.2797   -0.4759 H   0  0  0  0  0  0
   -4.4276  -11.6021    2.6720 H   0  0  0  0  0  0
    5.4735   -9.9435    2.7867 H   0  0  0  0  0  0
    0.5987  -10.0500   -0.8364 H   0  0  0  0  0  0
   -4.2348  -12.1309   10.3354 H   0  0  0  0  0  0
   -3.9004   -6.9977    8.4003 H   0  0  0  0  0  0
  1  2  1  0  0  0
  2  3  1  0  0  0
  3  4  1  0  0  0
  4  5  1  0  0  0
  5  6  1  0  0  0
  5  7  1  0  0  0
  7  8  1  0  0  0
  7 39  1  0  0  0
  8  9  1  0  0  0
  8 27  1  0  0  0
  9 10  1  0  0  0
 10 11  1  0  0  0
 10 12  1  0  0  0
 12 13  1  0  0  0
 13 14  1  0  0  0
 13 26  1  0  0  0
 14 15  1  0  0  0
 15 16  1  0  0  0
 16 17  1  0  0  0
 17 18  1  0  0  0
 18 19  1  0  0  0
 18 25  1  0  0  0
 19 20  1  0  0  0
 20 21  1  0  0  0
 20 24  1  0  0  0
 21 22  1  0  0  0
 21 23  1  0  0  0
 23 51  1  0  0  0
 23 52  1  0  0  0
 24 53  1  0  0  0
 25 54  1  0  0  0
 26 55  1  0  0  0
 27 28  1  0  0  0
 28 29  2  0  0  0
 28 30  1  0  0  0
 30 31  1  0  0  0
 31 32  1  0  0  0
 31 36  1  0  0  0
 32 33  1  0  0  0
 33 34  2  0  0  0
 33 35  1  0  0  0
 35 56  1  0  0  0
 36 37  2  0  0  0
 36 38  1  0  0  0
 38 57  1  0  0  0
 39 40  1  0  0  0
 40 41  2  0  0  0
 40 42  1  0  0  0
 42 43  1  0  0  0
 43 44  1  0  0  0
 43 48  1  0  0  0
 44 45  1  0  0  0
 45 46  2  0  0  0
 45 47  1  0  0  0
 47 58  1  0  0  0
 48 49  2  0  0  0
 48 50  1  0  0  0
 50 59  1  0  0  0
M  END
>  <AUTHOR>
    GENERATED BY OPEN BABEL 2.4.1

>  <CHROM.1>
62.79431568,-179.11730012,156.48094754,-70.01326581,81.68628856,76.96901728
39.33564158,133.00089549,171.65701671,-177.29719234,-32.39310552,-169.19246731
51.11723899,-145.02694160,-24.76584805,-165.64075417,-99.36286359,-171.35724985
-118.24464798,133.85760682,37.97016675,-178.06882916,-78.73177954,-90.31785243
80.73336265,98.12706494,-101.27806838,-97.49748149,-116.96075089,12.50389577
177.76286492,50.05211899,118.32801136,-49.89670812,-119.71350763,-95.68561632
39.28348230,147.39564489,3.58056634,-1.36276590,-9.21107840,3.07812229,1.18864546
-0.32440610,2.01360355

>  <COMPND>
    UNNAMED

>  <MASTER>
        0    0    0    0    0    0    0    0  109    0  109    0

>  <Name>
FB1.pdb

>  <RI>
0

>  <Rbt.Current_Directory>
/cluster/tossine/F10/p3/0_clust01/stat

>  <Rbt.Executable>
rbdock/0.1.0

>  <Rbt.Library>
librxdock.so/0.1.0

>  <Rbt.Parameter_File>
/cluster/rxdock/data/scripts/dock.prm

>  <Rbt.Receptor>
rx_3.prm

>  <SCORE>
42.9791

>  <SCORE.INTER>
-2.48484

>  <SCORE.INTER.CONST>
1

>  <SCORE.INTER.POLAR>
-1.15162

>  <SCORE.INTER.REPUL>
0.0635862

>  <SCORE.INTER.ROT>
32

>  <SCORE.INTER.VDW>
-36.2872

>  <SCORE.INTER.norm>
-0.0496967

>  <SCORE.INTRA>
39.5966

>  <SCORE.INTRA.DIHEDRAL>
66.7888

>  <SCORE.INTRA.DIHEDRAL.0>
47.3121

>  <SCORE.INTRA.POLAR>
1.32256

>  <SCORE.INTRA.POLAR.0>
-1.47808

>  <SCORE.INTRA.REPUL>
0

>  <SCORE.INTRA.REPUL.0>
0

>  <SCORE.INTRA.VDW>
1.70552

>  <SCORE.INTRA.VDW.0>
-2.78316

>  <SCORE.INTRA.norm>
0.791933

>  <SCORE.RESTR>
5.86727

>  <SCORE.RESTR.CAVITY>
5.86727

>  <SCORE.RESTR.norm>
0.117345

>  <SCORE.SYSTEM>
0

>  <SCORE.SYSTEM.CONST>
0

>  <SCORE.SYSTEM.DIHEDRAL>
0

>  <SCORE.SYSTEM.norm>
0

>  <SCORE.heavy>
50

>  <SCORE.norm>
0.859581

$$$$
