FB1.pdb
  RxDock  10072011513D
librxdock.so/0.1.0
 59 58  0  0  0  0  0  0  0  0999 V2000
   -5.3686  -11.3378    2.5846 C   0  0  0  0  0  0
   -5.9999  -11.5867    3.9523 C   0  0  0  0  0  0
   -4.9354  -11.7448    5.0505 C   0  0  0  0  0  0
   -5.3769  -11.1814    6.4243 C   0  0  0  0  0  0
   -4.3072  -11.3050    7.5648 C   0  0  0  0  0  0
   -3.9846  -12.8035    7.7676 C   0  0  0  0  0  0
   -2.9853  -10.4727    7.2861 C   0  0  0  0  0  0
   -2.5579  -10.2809    5.7542 C   0  0  0  0  0  0
   -2.9217   -9.0221    4.8535 C   0  0  0  0  0  0
   -2.4139   -7.5684    5.4452 C   0  0  0  0  0  0
   -0.9968   -7.7352    5.9913 C   0  0  0  0  0  0
   -2.4534   -6.3419    4.4260 C   0  0  0  0  0  0
   -3.6963   -5.3147    4.2898 C   0  0  0  0  0  0
   -3.5102   -3.7593    4.3396 C   0  0  0  0  0  0
   -4.0474   -2.9730    5.6211 C   0  0  0  0  0  0
   -4.3477   -1.4227    5.6511 C   0  0  0  0  0  0
   -4.8436   -0.7652    6.9661 C   0  0  0  0  0  0
   -4.6564    0.7966    7.0884 C   0  0  0  0  0  0
   -3.6799    1.2814    8.1672 C   0  0  0  0  0  0
   -2.1547    1.1377    7.8996 C   0  0  0  0  0  0
   -1.4460    2.0468    6.8523 C   0  0  0  0  0  0
   -1.7494    3.5364    6.9325 C   0  0  0  0  0  0
    0.0093    1.8047    6.8456 N   0  0  0  0  0  0
   -1.5270    1.4638    9.1658 O   0  0  0  0  0  0
   -4.2130    1.2890    5.8192 O   0  0  0  0  0  0
   -4.2581   -5.5840    2.9942 O   0  0  0  0  0  0
   -1.1057  -10.3347    5.7277 O   0  0  0  0  0  0
   -0.5330  -11.0435    4.7203 C   0  0  0  0  0  0
   -1.1167  -11.5984    3.8088 O   0  0  0  0  0  0
    0.9612  -10.9454    4.8590 C   0  0  0  0  0  0
    1.7078  -11.7764    3.8032 C   0  0  0  0  0  0
    2.9775  -11.0803    3.2963 C   0  0  0  0  0  0
    3.1652  -11.3014    1.8133 C   0  0  0  0  0  0
    4.1089  -11.9205    1.3339 O   0  0  0  0  0  0
    2.1956  -10.7551    1.0647 O   0  0  0  0  0  0
    2.0727  -13.1002    4.4891 C   0  0  0  0  0  0
    2.8772  -13.1771    5.4053 O   0  0  0  0  0  0
    1.4715  -14.1779    3.9666 O   0  0  0  0  0  0
   -2.9974   -9.1858    8.0235 O   0  0  0  0  0  0
   -1.9062   -8.8698    8.8156 C   0  0  0  0  0  0
   -0.7378   -9.0279    8.4866 O   0  0  0  0  0  0
   -2.3197   -8.2892   10.1744 C   0  0  0  0  0  0
   -1.2717   -8.4358   11.3209 C   0  0  0  0  0  0
    0.0581   -7.6713   11.1876 C   0  0  0  0  0  0
   -0.1148   -6.1807   11.2379 C   0  0  0  0  0  0
   -0.6188   -5.5514   12.1580 O   0  0  0  0  0  0
    0.3700   -5.5707   10.1455 O   0  0  0  0  0  0
   -1.8188   -8.1514   12.7252 C   0  0  0  0  0  0
   -1.4533   -8.7592   13.7119 O   0  0  0  0  0  0
   -2.6621   -7.1017   12.8168 O   0  0  0  0  0  0
    0.3893    2.0786    5.9406 H   0  0  0  0  0  0
    0.1731    0.7973    6.9061 H   0  0  0  0  0  0
   -0.5934    1.1845    9.0575 H   0  0  0  0  0  0
   -3.3794    0.8374    5.5921 H   0  0  0  0  0  0
   -3.5249   -5.7103    2.3689 H   0  0  0  0  0  0
    2.3427  -10.7930    0.1001 H   0  0  0  0  0  0
    0.8981  -13.9880    3.1831 H   0  0  0  0  0  0
    0.1959   -4.6124   10.2578 H   0  0  0  0  0  0
   -3.5712   -7.3190   13.1207 H   0  0  0  0  0  0
  1  2  1  0  0  0
  2  3  1  0  0  0
  3  4  1  0  0  0
  4  5  1  0  0  0
  5  6  1  0  0  0
  5  7  1  0  0  0
  7  8  1  0  0  0
  7 39  1  0  0  0
  8  9  1  0  0  0
  8 27  1  0  0  0
  9 10  1  0  0  0
 10 11  1  0  0  0
 10 12  1  0  0  0
 12 13  1  0  0  0
 13 14  1  0  0  0
 13 26  1  0  0  0
 14 15  1  0  0  0
 15 16  1  0  0  0
 16 17  1  0  0  0
 17 18  1  0  0  0
 18 19  1  0  0  0
 18 25  1  0  0  0
 19 20  1  0  0  0
 20 21  1  0  0  0
 20 24  1  0  0  0
 21 22  1  0  0  0
 21 23  1  0  0  0
 23 51  1  0  0  0
 23 52  1  0  0  0
 24 53  1  0  0  0
 25 54  1  0  0  0
 26 55  1  0  0  0
 27 28  1  0  0  0
 28 29  2  0  0  0
 28 30  1  0  0  0
 30 31  1  0  0  0
 31 32  1  0  0  0
 31 36  1  0  0  0
 32 33  1  0  0  0
 33 34  2  0  0  0
 33 35  1  0  0  0
 35 56  1  0  0  0
 36 37  2  0  0  0
 36 38  1  0  0  0
 38 57  1  0  0  0
 39 40  1  0  0  0
 40 41  2  0  0  0
 40 42  1  0  0  0
 42 43  1  0  0  0
 43 44  1  0  0  0
 43 48  1  0  0  0
 44 45  1  0  0  0
 45 46  2  0  0  0
 45 47  1  0  0  0
 47 58  1  0  0  0
 48 49  2  0  0  0
 48 50  1  0  0  0
 50 59  1  0  0  0
M  END
>  <AUTHOR>
    GENERATED BY OPEN BABEL 2.4.1

>  <CHROM.1>
145.89101581,-179.09679758,-60.17414767,-30.60029474,94.99498689,127.89877988
57.36573094,137.65673189,42.24273435,93.51390333,128.92485110,-109.59290556
-41.59016754,-160.32420431,-178.91074556,159.75710203,-114.18189908,75.44028356
-58.56129586,71.57682063,47.49587489,167.89081325,156.08914597,2.85839121
177.08621373,142.23824790,-141.61402860,-67.27253224,-115.74841879,173.29983671
2.34851675,43.56010019,156.31153876,65.83851768,66.07392006,144.27390538
58.25431154,178.74361609,118.42351748,-1.67629203,-7.20220034,6.60948331
-0.31022088,1.35962810,-0.99895085

>  <COMPND>
    UNNAMED

>  <MASTER>
        0    0    0    0    0    0    0    0  109    0  109    0

>  <Name>
FB1.pdb

>  <RI>
0

>  <Rbt.Current_Directory>
/cluster/tossine/F10/p3/0_clust01/stat

>  <Rbt.Executable>
rbdock/0.1.0

>  <Rbt.Library>
librxdock.so/0.1.0

>  <Rbt.Parameter_File>
/cluster/rxdock/data/scripts/dock.prm

>  <Rbt.Receptor>
rx_3.prm

>  <SCORE>
265.178

>  <SCORE.INTER>
217.183

>  <SCORE.INTER.CONST>
1

>  <SCORE.INTER.POLAR>
-2.20514

>  <SCORE.INTER.REPUL>
2.09711

>  <SCORE.INTER.ROT>
32

>  <SCORE.INTER.VDW>
176.795

>  <SCORE.INTER.norm>
4.34365

>  <SCORE.INTRA>
35.3061

>  <SCORE.INTRA.DIHEDRAL>
55.3989

>  <SCORE.INTRA.DIHEDRAL.0>
47.3121

>  <SCORE.INTRA.POLAR>
1.43776

>  <SCORE.INTRA.POLAR.0>
-1.47808

>  <SCORE.INTRA.REPUL>
0

>  <SCORE.INTRA.REPUL.0>
0

>  <SCORE.INTRA.VDW>
2.71828

>  <SCORE.INTRA.VDW.0>
-2.78316

>  <SCORE.INTRA.norm>
0.706123

>  <SCORE.RESTR>
12.6893

>  <SCORE.RESTR.CAVITY>
12.6893

>  <SCORE.RESTR.norm>
0.253785

>  <SCORE.SYSTEM>
0

>  <SCORE.SYSTEM.CONST>
0

>  <SCORE.SYSTEM.DIHEDRAL>
0

>  <SCORE.SYSTEM.norm>
0

>  <SCORE.heavy>
50

>  <SCORE.norm>
5.30356

$$$$
