FB1.pdb
  RxDock  10072011583D
librxdock.so/0.1.0
 59 58  0  0  0  0  0  0  0  0999 V2000
   -2.4944   -8.1392   11.0171 C   0  0  0  0  0  0
   -1.1837   -8.6077   10.3896 C   0  0  0  0  0  0
   -0.5609   -7.5231    9.4951 C   0  0  0  0  0  0
   -1.1481   -7.4925    8.0619 C   0  0  0  0  0  0
   -0.6075   -8.6087    7.1015 C   0  0  0  0  0  0
   -1.3282   -9.9334    7.4426 C   0  0  0  0  0  0
   -0.7700   -8.2539    5.5635 C   0  0  0  0  0  0
   -0.2704   -9.3514    4.5089 C   0  0  0  0  0  0
   -0.6240   -9.3583    2.9587 C   0  0  0  0  0  0
   -0.9502  -10.8449    2.3223 C   0  0  0  0  0  0
   -1.6778  -10.6542    0.9924 C   0  0  0  0  0  0
    0.3023  -11.8104    2.1131 C   0  0  0  0  0  0
    1.4927  -11.5359    1.0518 C   0  0  0  0  0  0
    2.6225  -10.4811    1.3108 C   0  0  0  0  0  0
    3.9612  -10.5774    0.4461 C   0  0  0  0  0  0
    4.0433  -10.2725   -1.1015 C   0  0  0  0  0  0
    2.8791  -10.7091   -2.0296 C   0  0  0  0  0  0
    3.2697  -11.1407   -3.4960 C   0  0  0  0  0  0
    4.0689  -10.1193   -4.3148 C   0  0  0  0  0  0
    3.3105   -8.9043   -4.9204 C   0  0  0  0  0  0
    1.9466   -9.1040   -5.6453 C   0  0  0  0  0  0
    1.9952   -9.7903   -7.0032 C   0  0  0  0  0  0
    0.9705   -9.7623   -4.7564 N   0  0  0  0  0  0
    3.0107   -8.0544   -3.7839 O   0  0  0  0  0  0
    4.0296  -12.3512   -3.4125 O   0  0  0  0  0  0
    2.1757  -12.7948    0.9288 O   0  0  0  0  0  0
    1.1822   -9.3194    4.5465 O   0  0  0  0  0  0
    1.7967  -10.1888    5.3901 C   0  0  0  0  0  0
    1.2719  -11.1190    5.9722 O   0  0  0  0  0  0
    3.2670   -9.8740    5.4100 C   0  0  0  0  0  0
    4.1307  -11.0586    4.9480 C   0  0  0  0  0  0
    3.3877  -11.9855    3.9774 C   0  0  0  0  0  0
    3.5202  -13.4316    4.3954 C   0  0  0  0  0  0
    3.9120  -13.7844    5.5025 O   0  0  0  0  0  0
    3.1651  -14.2996    3.4367 O   0  0  0  0  0  0
    5.3540  -10.4435    4.2544 C   0  0  0  0  0  0
    5.5567  -10.5366    3.0533 O   0  0  0  0  0  0
    6.2124   -9.8348    5.0843 O   0  0  0  0  0  0
   -2.1446   -7.7836    5.2648 O   0  0  0  0  0  0
   -3.2089   -8.4324    5.8684 C   0  0  0  0  0  0
   -3.6625   -8.1502    6.9697 O   0  0  0  0  0  0
   -3.7730   -9.5631    4.9979 C   0  0  0  0  0  0
   -3.9167   -9.2405    3.4781 C   0  0  0  0  0  0
   -4.8014  -10.1658    2.6228 C   0  0  0  0  0  0
   -6.0085  -10.6694    3.3602 C   0  0  0  0  0  0
   -6.2185  -10.5389    4.5583 O   0  0  0  0  0  0
   -6.8838  -11.2858    2.5514 O   0  0  0  0  0  0
   -4.3382   -7.7985    3.1694 C   0  0  0  0  0  0
   -5.4512   -7.5050    2.7797 O   0  0  0  0  0  0
   -3.4217   -6.8519    3.4611 O   0  0  0  0  0  0
    1.1138   -9.4347   -3.8021 H   0  0  0  0  0  0
    1.1796  -10.7627   -4.7256 H   0  0  0  0  0  0
    3.5086   -7.2274   -3.9562 H   0  0  0  0  0  0
    4.2088  -12.6611   -4.3193 H   0  0  0  0  0  0
    2.4243  -13.0904    1.8206 H   0  0  0  0  0  0
    3.2689  -15.2424    3.6690 H   0  0  0  0  0  0
    7.0769   -9.5880    4.6713 H   0  0  0  0  0  0
   -7.6286  -11.5816    3.1162 H   0  0  0  0  0  0
   -3.7888   -5.9890    3.7560 H   0  0  0  0  0  0
  1  2  1  0  0  0
  2  3  1  0  0  0
  3  4  1  0  0  0
  4  5  1  0  0  0
  5  6  1  0  0  0
  5  7  1  0  0  0
  7  8  1  0  0  0
  7 39  1  0  0  0
  8  9  1  0  0  0
  8 27  1  0  0  0
  9 10  1  0  0  0
 10 11  1  0  0  0
 10 12  1  0  0  0
 12 13  1  0  0  0
 13 14  1  0  0  0
 13 26  1  0  0  0
 14 15  1  0  0  0
 15 16  1  0  0  0
 16 17  1  0  0  0
 17 18  1  0  0  0
 18 19  1  0  0  0
 18 25  1  0  0  0
 19 20  1  0  0  0
 20 21  1  0  0  0
 20 24  1  0  0  0
 21 22  1  0  0  0
 21 23  1  0  0  0
 23 51  1  0  0  0
 23 52  1  0  0  0
 24 53  1  0  0  0
 25 54  1  0  0  0
 26 55  1  0  0  0
 27 28  1  0  0  0
 28 29  2  0  0  0
 28 30  1  0  0  0
 30 31  1  0  0  0
 31 32  1  0  0  0
 31 36  1  0  0  0
 32 33  1  0  0  0
 33 34  2  0  0  0
 33 35  1  0  0  0
 35 56  1  0  0  0
 36 37  2  0  0  0
 36 38  1  0  0  0
 38 57  1  0  0  0
 39 40  1  0  0  0
 40 41  2  0  0  0
 40 42  1  0  0  0
 42 43  1  0  0  0
 43 44  1  0  0  0
 43 48  1  0  0  0
 44 45  1  0  0  0
 45 46  2  0  0  0
 45 47  1  0  0  0
 47 58  1  0  0  0
 48 49  2  0  0  0
 48 50  1  0  0  0
 50 59  1  0  0  0
M  END
>  <AUTHOR>
    GENERATED BY OPEN BABEL 2.4.1

>  <CHROM.1>
-83.34124471,-77.89706958,78.14781764,-178.82651235,165.57886996,-40.86762979
-139.79327969,92.93150981,162.56758180,-66.81943258,76.45499484,162.16833136
-53.63986562,68.94880484,-38.18089622,-146.68274952,-55.24923535,-76.62819090
175.32503525,-45.21468414,-71.35673797,116.38167026,35.69492557,11.38596401
-120.09974358,27.57743465,-131.01365224,-111.66434936,14.66897214,178.05130319
169.09217763,87.19801787,-42.34520477,-164.23222020,36.02493247,-106.80613964
-9.54793112,179.70194101,-146.90893327,0.35375658,-10.01796851,2.77756561
-2.14230261,0.25208055,-1.58069037

>  <COMPND>
    UNNAMED

>  <MASTER>
        0    0    0    0    0    0    0    0  109    0  109    0

>  <Name>
FB1.pdb

>  <RI>
0

>  <Rbt.Current_Directory>
/cluster/tossine/F10/p3/0_clust01/stat

>  <Rbt.Executable>
rbdock/0.1.0

>  <Rbt.Library>
librxdock.so/0.1.0

>  <Rbt.Parameter_File>
/cluster/rxdock/data/scripts/dock.prm

>  <Rbt.Receptor>
rx_3.prm

>  <SCORE>
37.7144

>  <SCORE.INTER>
11.3916

>  <SCORE.INTER.CONST>
1

>  <SCORE.INTER.POLAR>
-0.983045

>  <SCORE.INTER.REPUL>
0.528684

>  <SCORE.INTER.ROT>
32

>  <SCORE.INTER.VDW>
-25.3095

>  <SCORE.INTER.norm>
0.227831

>  <SCORE.INTRA>
20.0768

>  <SCORE.INTRA.DIHEDRAL>
38.228

>  <SCORE.INTRA.DIHEDRAL.0>
47.3121

>  <SCORE.INTRA.POLAR>
0.418034

>  <SCORE.INTRA.POLAR.0>
-1.47808

>  <SCORE.INTRA.REPUL>
0.00922882

>  <SCORE.INTRA.REPUL.0>
0

>  <SCORE.INTRA.VDW>
-0.504635

>  <SCORE.INTRA.VDW.0>
-2.78316

>  <SCORE.INTRA.norm>
0.401537

>  <SCORE.RESTR>
6.24597

>  <SCORE.RESTR.CAVITY>
6.24597

>  <SCORE.RESTR.norm>
0.124919

>  <SCORE.SYSTEM>
0

>  <SCORE.SYSTEM.CONST>
0

>  <SCORE.SYSTEM.DIHEDRAL>
0

>  <SCORE.SYSTEM.norm>
0

>  <SCORE.heavy>
50

>  <SCORE.norm>
0.754287

$$$$
