FB1.pdb
  RxDock  10072011423D
librxdock.so/0.1.0
 59 58  0  0  0  0  0  0  0  0999 V2000
    5.0050  -10.5337   -2.5506 C   0  0  0  0  0  0
    5.3914  -10.1963   -1.1125 C   0  0  0  0  0  0
    4.3326  -10.6830   -0.1094 C   0  0  0  0  0  0
    2.9491  -10.0119   -0.2973 C   0  0  0  0  0  0
    1.7864  -10.6463    0.5429 C   0  0  0  0  0  0
    1.8577  -12.1830    0.3876 C   0  0  0  0  0  0
    1.8105  -10.2290    2.0736 C   0  0  0  0  0  0
    0.4518  -10.4221    2.9000 C   0  0  0  0  0  0
   -0.2321  -11.8209    3.2224 C   0  0  0  0  0  0
   -1.6843  -12.0764    2.4827 C   0  0  0  0  0  0
   -2.7808  -11.4363    3.3325 C   0  0  0  0  0  0
   -1.8064  -11.5636    0.9771 C   0  0  0  0  0  0
   -1.3119  -10.1082    0.4711 C   0  0  0  0  0  0
   -1.7481   -9.5054   -0.9082 C   0  0  0  0  0  0
   -1.4052  -10.3245   -2.2351 C   0  0  0  0  0  0
   -2.0234  -10.0150   -3.6552 C   0  0  0  0  0  0
   -1.3535  -10.6027   -4.9253 C   0  0  0  0  0  0
   -1.6845   -9.8881   -6.2924 C   0  0  0  0  0  0
   -1.5475   -8.3606   -6.3112 C   0  0  0  0  0  0
   -2.8337   -7.5028   -6.1430 C   0  0  0  0  0  0
   -3.9619   -7.5495   -7.2154 C   0  0  0  0  0  0
   -3.5447   -7.2613   -8.6508 C   0  0  0  0  0  0
   -4.7166   -8.8143   -7.1295 N   0  0  0  0  0  0
   -3.4502   -7.9991   -4.9275 O   0  0  0  0  0  0
   -0.8224  -10.4344   -7.2964 O   0  0  0  0  0  0
   -1.8069   -9.1864    1.4569 O   0  0  0  0  0  0
    0.6814   -9.8246    4.2049 O   0  0  0  0  0  0
   -0.3996   -9.3097    4.8464 C   0  0  0  0  0  0
   -1.4601   -9.0025    4.3361 O   0  0  0  0  0  0
   -0.1061   -9.2747    6.3208 C   0  0  0  0  0  0
   -1.0930  -10.1221    7.1395 C   0  0  0  0  0  0
   -2.5493   -9.6797    6.9470 C   0  0  0  0  0  0
   -2.6969   -8.1891    7.1457 C   0  0  0  0  0  0
   -2.7096   -7.6495    8.2468 O   0  0  0  0  0  0
   -2.8118   -7.5057    5.9974 O   0  0  0  0  0  0
   -0.9141  -11.5666    6.6521 C   0  0  0  0  0  0
    0.1447  -11.9993    6.2229 O   0  0  0  0  0  0
   -2.0316  -12.3053    6.6893 O   0  0  0  0  0  0
    2.9743  -10.8258    2.7731 O   0  0  0  0  0  0
    4.1628  -10.1153    2.7995 C   0  0  0  0  0  0
    4.4050   -9.1373    2.1044 O   0  0  0  0  0  0
    5.1644  -10.6903    3.8096 C   0  0  0  0  0  0
    4.8144  -10.4656    5.3135 C   0  0  0  0  0  0
    4.6485   -9.0174    5.8089 C   0  0  0  0  0  0
    5.6081   -8.6594    6.9069 C   0  0  0  0  0  0
    6.7613   -9.0559    7.0040 O   0  0  0  0  0  0
    5.0724   -7.8150    7.8015 O   0  0  0  0  0  0
    3.5978  -11.2564    5.8101 C   0  0  0  0  0  0
    2.6022  -10.7234    6.2588 O   0  0  0  0  0  0
    3.6566  -12.5910    5.6184 O   0  0  0  0  0  0
   -5.6460   -8.6762   -7.5241 H   0  0  0  0  0  0
   -4.8786   -9.0316   -6.1436 H   0  0  0  0  0  0
   -2.9073   -7.6216   -4.2036 H   0  0  0  0  0  0
    0.0990  -10.2369   -7.0464 H   0  0  0  0  0  0
   -1.4773   -8.3002    1.2322 H   0  0  0  0  0  0
   -2.7416   -6.5354    6.0812 H   0  0  0  0  0  0
   -1.8913  -13.2700    6.5210 H   0  0  0  0  0  0
    5.8063   -7.5121    8.3769 H   0  0  0  0  0  0
    2.9120  -13.1036    6.0045 H   0  0  0  0  0  0
  1  2  1  0  0  0
  2  3  1  0  0  0
  3  4  1  0  0  0
  4  5  1  0  0  0
  5  6  1  0  0  0
  5  7  1  0  0  0
  7  8  1  0  0  0
  7 39  1  0  0  0
  8  9  1  0  0  0
  8 27  1  0  0  0
  9 10  1  0  0  0
 10 11  1  0  0  0
 10 12  1  0  0  0
 12 13  1  0  0  0
 13 14  1  0  0  0
 13 26  1  0  0  0
 14 15  1  0  0  0
 15 16  1  0  0  0
 16 17  1  0  0  0
 17 18  1  0  0  0
 18 19  1  0  0  0
 18 25  1  0  0  0
 19 20  1  0  0  0
 20 21  1  0  0  0
 20 24  1  0  0  0
 21 22  1  0  0  0
 21 23  1  0  0  0
 23 51  1  0  0  0
 23 52  1  0  0  0
 24 53  1  0  0  0
 25 54  1  0  0  0
 26 55  1  0  0  0
 27 28  1  0  0  0
 28 29  2  0  0  0
 28 30  1  0  0  0
 30 31  1  0  0  0
 31 32  1  0  0  0
 31 36  1  0  0  0
 32 33  1  0  0  0
 33 34  2  0  0  0
 33 35  1  0  0  0
 35 56  1  0  0  0
 36 37  2  0  0  0
 36 38  1  0  0  0
 38 57  1  0  0  0
 39 40  1  0  0  0
 40 41  2  0  0  0
 40 42  1  0  0  0
 42 43  1  0  0  0
 43 44  1  0  0  0
 43 48  1  0  0  0
 44 45  1  0  0  0
 45 46  2  0  0  0
 45 47  1  0  0  0
 47 58  1  0  0  0
 48 49  2  0  0  0
 48 50  1  0  0  0
 50 59  1  0  0  0
M  END
>  <AUTHOR>
    GENERATED BY OPEN BABEL 2.4.1

>  <CHROM.1>
-62.59346480,170.35870631,-46.54925592,161.02230983,65.44290181,89.62394539
-113.05200028,150.69186541,-84.53780857,-46.09560897,-164.95787411,-58.33394527
175.79323751,166.86225314,163.60920291,-159.61808716,48.93940007,-98.71441498
-61.95093618,-64.44401451,-54.26886577,75.81285152,156.00944393,-19.02962282
-119.55621074,-58.22391926,-50.35397811,29.89219123,-76.95039542,-169.10072956
-170.33653460,-13.00134951,-71.42405014,-58.54519130,-120.48441421,-119.58561862
35.49668499,-169.88339486,175.06173767,0.43069706,-9.91208120,1.70027271
-1.91494601,-0.10603932,1.61007981

>  <COMPND>
    UNNAMED

>  <MASTER>
        0    0    0    0    0    0    0    0  109    0  109    0

>  <Name>
FB1.pdb

>  <RI>
0

>  <Rbt.Current_Directory>
/cluster/tossine/F10/p3/0_clust01/stat

>  <Rbt.Executable>
rbdock/0.1.0

>  <Rbt.Library>
librxdock.so/0.1.0

>  <Rbt.Parameter_File>
/cluster/rxdock/data/scripts/dock.prm

>  <Rbt.Receptor>
rx_3.prm

>  <SCORE>
25.3627

>  <SCORE.INTER>
12.6888

>  <SCORE.INTER.CONST>
1

>  <SCORE.INTER.POLAR>
-1.27406

>  <SCORE.INTER.REPUL>
0.694934

>  <SCORE.INTER.ROT>
32

>  <SCORE.INTER.VDW>
-23.8541

>  <SCORE.INTER.norm>
0.253776

>  <SCORE.INTRA>
7.09179

>  <SCORE.INTRA.DIHEDRAL>
7.20391

>  <SCORE.INTRA.DIHEDRAL.0>
47.3121

>  <SCORE.INTRA.POLAR>
1.28127

>  <SCORE.INTRA.POLAR.0>
-1.47808

>  <SCORE.INTRA.REPUL>
0.015615

>  <SCORE.INTRA.REPUL.0>
0

>  <SCORE.INTRA.VDW>
-0.944563

>  <SCORE.INTRA.VDW.0>
-2.78316

>  <SCORE.INTRA.norm>
0.141836

>  <SCORE.RESTR>
5.58214

>  <SCORE.RESTR.CAVITY>
5.58214

>  <SCORE.RESTR.norm>
0.111643

>  <SCORE.SYSTEM>
0

>  <SCORE.SYSTEM.CONST>
0

>  <SCORE.SYSTEM.DIHEDRAL>
0

>  <SCORE.SYSTEM.norm>
0

>  <SCORE.heavy>
50

>  <SCORE.norm>
0.507255

$$$$
