FB1.pdb
  RxDock  10072012073D
librxdock.so/0.1.0
 59 58  0  0  0  0  0  0  0  0999 V2000
   -5.5040   -7.0630    2.0029 C   0  0  0  0  0  0
   -4.3386   -7.0450    2.9892 C   0  0  0  0  0  0
   -2.9836   -7.1601    2.2717 C   0  0  0  0  0  0
   -2.8942   -8.3725    1.3116 C   0  0  0  0  0  0
   -3.4009   -9.7303    1.9117 C   0  0  0  0  0  0
   -3.8960  -10.6205    0.7485 C   0  0  0  0  0  0
   -2.3083  -10.4861    2.7793 C   0  0  0  0  0  0
   -0.8403  -10.6099    2.1501 C   0  0  0  0  0  0
    0.2585  -11.6705    2.5927 C   0  0  0  0  0  0
    0.5832  -11.7079    4.2096 C   0  0  0  0  0  0
    0.1156  -13.0512    4.7674 C   0  0  0  0  0  0
    2.1017  -11.4545    4.6279 C   0  0  0  0  0  0
    3.3375  -12.3947    4.1726 C   0  0  0  0  0  0
    4.8330  -11.9863    4.4024 C   0  0  0  0  0  0
    5.3861  -10.6866    3.6580 C   0  0  0  0  0  0
    4.5366   -9.8050    2.6601 C   0  0  0  0  0  0
    3.9562  -10.4503    1.3739 C   0  0  0  0  0  0
    4.9688  -10.6965    0.1893 C   0  0  0  0  0  0
    4.3754  -11.2698   -1.1036 C   0  0  0  0  0  0
    3.6578  -10.2960   -2.0808 C   0  0  0  0  0  0
    4.4039   -9.7323   -3.3263 C   0  0  0  0  0  0
    5.8104   -9.2001   -3.0900 C   0  0  0  0  0  0
    4.3879  -10.7066   -4.4339 N   0  0  0  0  0  0
    2.5532  -11.0652   -2.6212 O   0  0  0  0  0  0
    5.6036   -9.4499   -0.1154 O   0  0  0  0  0  0
    3.1644  -13.6159    4.9110 O   0  0  0  0  0  0
   -1.0264  -10.8560    0.7298 O   0  0  0  0  0  0
   -0.7248   -9.8379   -0.1174 C   0  0  0  0  0  0
    0.1811   -9.0369    0.0141 O   0  0  0  0  0  0
   -1.6385   -9.9235   -1.3087 C   0  0  0  0  0  0
   -1.0608  -10.7962   -2.4344 C   0  0  0  0  0  0
    0.0673  -10.0955   -3.2024 C   0  0  0  0  0  0
    0.1627  -10.6097   -4.6201 C   0  0  0  0  0  0
   -0.7927  -10.6666   -5.3867 O   0  0  0  0  0  0
    1.3989  -10.9992   -4.9651 O   0  0  0  0  0  0
   -0.5246  -12.0628   -1.7532 C   0  0  0  0  0  0
    0.6317  -12.4413   -1.8642 O   0  0  0  0  0  0
   -1.4443  -12.7511   -1.0629 O   0  0  0  0  0  0
   -2.2741   -9.9665    4.1681 O   0  0  0  0  0  0
   -3.4365  -10.0167    4.9194 C   0  0  0  0  0  0
   -4.4682  -10.5749    4.5695 O   0  0  0  0  0  0
   -3.2958   -9.2874    6.2620 C   0  0  0  0  0  0
   -2.2564   -9.8925    7.2559 C   0  0  0  0  0  0
   -1.5231   -8.9316    8.2096 C   0  0  0  0  0  0
   -2.3101   -8.6228    9.4505 C   0  0  0  0  0  0
   -2.9176   -7.5839    9.6700 O   0  0  0  0  0  0
   -2.3037   -9.6378   10.3280 O   0  0  0  0  0  0
   -2.7870  -11.0550    8.1040 C   0  0  0  0  0  0
   -3.9722  -11.2898    8.2347 O   0  0  0  0  0  0
   -1.8458  -11.8752    8.6164 O   0  0  0  0  0  0
    5.1176  -10.4641   -5.1027 H   0  0  0  0  0  0
    3.5116  -10.6002   -4.9499 H   0  0  0  0  0  0
    2.0405  -11.3469   -1.8343 H   0  0  0  0  0  0
    6.0831   -9.1506    0.6790 H   0  0  0  0  0  0
    3.1520  -13.3958    5.8576 H   0  0  0  0  0  0
    1.9939  -11.2061   -4.2191 H   0  0  0  0  0  0
   -1.5636  -12.4519   -0.1275 H   0  0  0  0  0  0
   -2.8039   -9.3330   11.1143 H   0  0  0  0  0  0
   -2.1368  -12.8006    8.7750 H   0  0  0  0  0  0
  1  2  1  0  0  0
  2  3  1  0  0  0
  3  4  1  0  0  0
  4  5  1  0  0  0
  5  6  1  0  0  0
  5  7  1  0  0  0
  7  8  1  0  0  0
  7 39  1  0  0  0
  8  9  1  0  0  0
  8 27  1  0  0  0
  9 10  1  0  0  0
 10 11  1  0  0  0
 10 12  1  0  0  0
 12 13  1  0  0  0
 13 14  1  0  0  0
 13 26  1  0  0  0
 14 15  1  0  0  0
 15 16  1  0  0  0
 16 17  1  0  0  0
 17 18  1  0  0  0
 18 19  1  0  0  0
 18 25  1  0  0  0
 19 20  1  0  0  0
 20 21  1  0  0  0
 20 24  1  0  0  0
 21 22  1  0  0  0
 21 23  1  0  0  0
 23 51  1  0  0  0
 23 52  1  0  0  0
 24 53  1  0  0  0
 25 54  1  0  0  0
 26 55  1  0  0  0
 27 28  1  0  0  0
 28 29  2  0  0  0
 28 30  1  0  0  0
 30 31  1  0  0  0
 31 32  1  0  0  0
 31 36  1  0  0  0
 32 33  1  0  0  0
 33 34  2  0  0  0
 33 35  1  0  0  0
 35 56  1  0  0  0
 36 37  2  0  0  0
 36 38  1  0  0  0
 38 57  1  0  0  0
 39 40  1  0  0  0
 40 41  2  0  0  0
 40 42  1  0  0  0
 42 43  1  0  0  0
 43 44  1  0  0  0
 43 48  1  0  0  0
 44 45  1  0  0  0
 45 46  2  0  0  0
 45 47  1  0  0  0
 47 58  1  0  0  0
 48 49  2  0  0  0
 48 50  1  0  0  0
 50 59  1  0  0  0
M  END
>  <AUTHOR>
    GENERATED BY OPEN BABEL 2.4.1

>  <CHROM.1>
-52.96188404,-47.05254024,152.84356615,-46.73979454,-159.99412705,57.90160660
-52.88865601,107.94903753,113.46123606,-61.06929476,169.62650302,-63.50716016
-57.41654854,-2.16705316,-60.07144837,-76.76130728,-177.06300967,80.36894836
60.84404700,98.53488554,-46.48407418,57.23106164,-161.50777398,36.00346105
-89.54940584,-74.79817744,-152.73979754,-123.80015737,51.78228597,20.66341291
-87.01698978,7.26448438,-64.04079274,148.54163803,83.92706291,-16.48842260
-103.67672886,177.57623182,-152.12049865,0.00727919,-10.40403494,2.00974474
2.06474164,-0.21815350,1.60693137

>  <COMPND>
    UNNAMED

>  <MASTER>
        0    0    0    0    0    0    0    0  109    0  109    0

>  <Name>
FB1.pdb

>  <RI>
0

>  <Rbt.Current_Directory>
/cluster/tossine/F10/p3/0_clust01/stat

>  <Rbt.Executable>
rbdock/0.1.0

>  <Rbt.Library>
librxdock.so/0.1.0

>  <Rbt.Parameter_File>
/cluster/rxdock/data/scripts/dock.prm

>  <Rbt.Receptor>
rx_3.prm

>  <SCORE>
41.7998

>  <SCORE.INTER>
18.0838

>  <SCORE.INTER.CONST>
1

>  <SCORE.INTER.POLAR>
-0.459878

>  <SCORE.INTER.REPUL>
0.153483

>  <SCORE.INTER.ROT>
32

>  <SCORE.INTER.VDW>
-18.52

>  <SCORE.INTER.norm>
0.361676

>  <SCORE.INTRA>
15.3976

>  <SCORE.INTRA.DIHEDRAL>
41.1975

>  <SCORE.INTRA.DIHEDRAL.0>
47.3121

>  <SCORE.INTRA.POLAR>
-1.36953

>  <SCORE.INTRA.POLAR.0>
-1.47808

>  <SCORE.INTRA.REPUL>
0

>  <SCORE.INTRA.REPUL.0>
0

>  <SCORE.INTRA.VDW>
-0.544735

>  <SCORE.INTRA.VDW.0>
-2.78316

>  <SCORE.INTRA.norm>
0.307952

>  <SCORE.RESTR>
8.31842

>  <SCORE.RESTR.CAVITY>
8.31842

>  <SCORE.RESTR.norm>
0.166368

>  <SCORE.SYSTEM>
0

>  <SCORE.SYSTEM.CONST>
0

>  <SCORE.SYSTEM.DIHEDRAL>
0

>  <SCORE.SYSTEM.norm>
0

>  <SCORE.heavy>
50

>  <SCORE.norm>
0.835996

$$$$
