FB1.pdb
  RxDock  10072012083D
librxdock.so/0.1.0
 59 58  0  0  0  0  0  0  0  0999 V2000
    2.6572  -10.6572   -9.9167 C   0  0  0  0  0  0
    2.9856   -9.5049  -10.8632 C   0  0  0  0  0  0
    3.7771   -8.3936  -10.1541 C   0  0  0  0  0  0
    4.3930   -7.3572  -11.1269 C   0  0  0  0  0  0
    4.7271   -5.9652  -10.4857 C   0  0  0  0  0  0
    5.4248   -5.0930  -11.5549 C   0  0  0  0  0  0
    3.4588   -5.2229   -9.8871 C   0  0  0  0  0  0
    2.0723   -5.4118  -10.6669 C   0  0  0  0  0  0
    1.0018   -6.5488  -10.3677 C   0  0  0  0  0  0
   -0.5115   -6.2569  -10.9558 C   0  0  0  0  0  0
   -0.6505   -6.9572  -12.3065 C   0  0  0  0  0  0
   -1.7262   -6.6741  -10.0095 C   0  0  0  0  0  0
   -3.2852   -6.4578  -10.3852 C   0  0  0  0  0  0
   -4.3679   -6.1059   -9.3082 C   0  0  0  0  0  0
   -4.3746   -6.9332   -7.9426 C   0  0  0  0  0  0
   -4.7954   -6.3344   -6.5430 C   0  0  0  0  0  0
   -4.9752   -4.8009   -6.3903 C   0  0  0  0  0  0
   -6.3102   -4.1864   -6.9641 C   0  0  0  0  0  0
   -7.0761   -3.2373   -6.0339 C   0  0  0  0  0  0
   -6.4230   -1.8731   -5.6723 C   0  0  0  0  0  0
   -6.2602   -0.7628   -6.7522 C   0  0  0  0  0  0
   -6.8287    0.6066   -6.4070 C   0  0  0  0  0  0
   -4.8549   -0.6557   -7.1881 N   0  0  0  0  0  0
   -7.3024   -1.2982   -4.6723 O   0  0  0  0  0  0
   -5.9903   -3.4822   -8.1689 O   0  0  0  0  0  0
   -3.2942   -5.3505  -11.3020 O   0  0  0  0  0  0
    1.3364   -4.1704  -10.4941 O   0  0  0  0  0  0
    2.0595   -3.0204  -10.4883 C   0  0  0  0  0  0
    2.4370   -2.4031  -11.4659 O   0  0  0  0  0  0
    2.2334   -2.5747   -9.0626 C   0  0  0  0  0  0
    2.7751   -1.1403   -8.9545 C   0  0  0  0  0  0
    2.5127   -0.5142   -7.5788 C   0  0  0  0  0  0
    2.4891    0.9944   -7.6620 C   0  0  0  0  0  0
    3.0329    1.7274   -6.8431 O   0  0  0  0  0  0
    1.8147    1.4604   -8.7235 O   0  0  0  0  0  0
    4.2858   -1.2398   -9.2068 C   0  0  0  0  0  0
    4.7746   -1.9834  -10.0438 O   0  0  0  0  0  0
    5.0332   -0.4775   -8.3968 O   0  0  0  0  0  0
    3.3186   -5.4889   -8.4347 O   0  0  0  0  0  0
    4.4085   -6.0006   -7.7502 C   0  0  0  0  0  0
    5.0459   -6.9875   -8.0939 O   0  0  0  0  0  0
    4.7423   -5.1874   -6.4926 C   0  0  0  0  0  0
    5.3768   -3.7840   -6.7420 C   0  0  0  0  0  0
    5.9841   -3.5007   -8.1282 C   0  0  0  0  0  0
    7.3617   -2.9079   -8.0550 C   0  0  0  0  0  0
    7.6669   -1.8834   -7.4603 O   0  0  0  0  0  0
    8.2720   -3.6425   -8.7124 O   0  0  0  0  0  0
    4.4636   -2.6009   -6.3974 C   0  0  0  0  0  0
    4.8850   -1.4804   -6.1888 O   0  0  0  0  0  0
    3.1396   -2.8581   -6.4444 O   0  0  0  0  0  0
   -4.3738    0.0240   -6.6007 H   0  0  0  0  0  0
   -4.8342   -0.2532   -8.1278 H   0  0  0  0  0  0
   -6.7067   -0.7870   -4.0847 H   0  0  0  0  0  0
   -5.7877   -4.1390   -8.8604 H   0  0  0  0  0  0
   -3.0187   -5.6798  -12.1739 H   0  0  0  0  0  0
    1.6554    2.4238   -8.7257 H   0  0  0  0  0  0
    4.6686    0.4277   -8.2339 H   0  0  0  0  0  0
    9.1522   -3.2957   -8.4551 H   0  0  0  0  0  0
    2.8895   -3.6877   -6.9086 H   0  0  0  0  0  0
  1  2  1  0  0  0
  2  3  1  0  0  0
  3  4  1  0  0  0
  4  5  1  0  0  0
  5  6  1  0  0  0
  5  7  1  0  0  0
  7  8  1  0  0  0
  7 39  1  0  0  0
  8  9  1  0  0  0
  8 27  1  0  0  0
  9 10  1  0  0  0
 10 11  1  0  0  0
 10 12  1  0  0  0
 12 13  1  0  0  0
 13 14  1  0  0  0
 13 26  1  0  0  0
 14 15  1  0  0  0
 15 16  1  0  0  0
 16 17  1  0  0  0
 17 18  1  0  0  0
 18 19  1  0  0  0
 18 25  1  0  0  0
 19 20  1  0  0  0
 20 21  1  0  0  0
 20 24  1  0  0  0
 21 22  1  0  0  0
 21 23  1  0  0  0
 23 51  1  0  0  0
 23 52  1  0  0  0
 24 53  1  0  0  0
 25 54  1  0  0  0
 26 55  1  0  0  0
 27 28  1  0  0  0
 28 29  2  0  0  0
 28 30  1  0  0  0
 30 31  1  0  0  0
 31 32  1  0  0  0
 31 36  1  0  0  0
 32 33  1  0  0  0
 33 34  2  0  0  0
 33 35  1  0  0  0
 35 56  1  0  0  0
 36 37  2  0  0  0
 36 38  1  0  0  0
 38 57  1  0  0  0
 39 40  1  0  0  0
 40 41  2  0  0  0
 40 42  1  0  0  0
 42 43  1  0  0  0
 43 44  1  0  0  0
 43 48  1  0  0  0
 44 45  1  0  0  0
 45 46  2  0  0  0
 45 47  1  0  0  0
 47 58  1  0  0  0
 48 49  2  0  0  0
 48 50  1  0  0  0
 50 59  1  0  0  0
M  END
>  <AUTHOR>
    GENERATED BY OPEN BABEL 2.4.1

>  <CHROM.1>
167.60047694,158.07383416,175.84921804,-35.09600696,91.09064358,16.31658563
161.56898802,36.27983867,95.88372911,179.17106929,-145.25764362,-45.79976293
78.09233293,147.13518608,-11.59221262,77.41674997,131.46843139,67.01630295
72.18496074,68.93853259,126.51128938,147.31894811,-90.54452799,82.98313439
-167.88500867,160.55535889,-155.51997978,39.08947392,-136.91870836,170.29676572
-41.57148537,-51.50702182,-72.06674894,-17.46527126,-131.35301183,159.91938844
-56.46773784,-168.18995188,-14.99917619,1.01108965,-3.83890838,-8.59174414
0.12197824,-0.10845871,-2.73552405

>  <COMPND>
    UNNAMED

>  <MASTER>
        0    0    0    0    0    0    0    0  109    0  109    0

>  <Name>
FB1.pdb

>  <RI>
0

>  <Rbt.Current_Directory>
/cluster/tossine/F10/p3/0_clust01/stat

>  <Rbt.Executable>
rbdock/0.1.0

>  <Rbt.Library>
librxdock.so/0.1.0

>  <Rbt.Parameter_File>
/cluster/rxdock/data/scripts/dock.prm

>  <Rbt.Receptor>
rx_3.prm

>  <SCORE>
74.6812

>  <SCORE.INTER>
13.688

>  <SCORE.INTER.CONST>
1

>  <SCORE.INTER.POLAR>
-6.6839

>  <SCORE.INTER.REPUL>
0.81372

>  <SCORE.INTER.ROT>
32

>  <SCORE.INTER.VDW>
-5.05528

>  <SCORE.INTER.norm>
0.273761

>  <SCORE.INTRA>
49.3538

>  <SCORE.INTRA.DIHEDRAL>
81.6137

>  <SCORE.INTRA.DIHEDRAL.0>
47.3121

>  <SCORE.INTRA.POLAR>
1.19101

>  <SCORE.INTRA.POLAR.0>
-1.47808

>  <SCORE.INTRA.REPUL>
0

>  <SCORE.INTRA.REPUL.0>
0

>  <SCORE.INTRA.VDW>
4.49755

>  <SCORE.INTRA.VDW.0>
-2.78316

>  <SCORE.INTRA.norm>
0.987077

>  <SCORE.RESTR>
11.6394

>  <SCORE.RESTR.CAVITY>
11.6394

>  <SCORE.RESTR.norm>
0.232787

>  <SCORE.SYSTEM>
0

>  <SCORE.SYSTEM.CONST>
0

>  <SCORE.SYSTEM.DIHEDRAL>
0

>  <SCORE.SYSTEM.norm>
0

>  <SCORE.heavy>
50

>  <SCORE.norm>
1.49362

$$$$
