FB1.pdb
  RxDock  10072012073D
librxdock.so/0.1.0
 59 58  0  0  0  0  0  0  0  0999 V2000
    2.8387  -13.0262    6.2923 C   0  0  0  0  0  0
    1.4456  -13.6198    6.0967 C   0  0  0  0  0  0
    0.3994  -12.5321    5.8024 C   0  0  0  0  0  0
   -0.8710  -13.0714    5.0988 C   0  0  0  0  0  0
   -1.7534  -11.9798    4.3987 C   0  0  0  0  0  0
   -2.7665  -11.4376    5.4333 C   0  0  0  0  0  0
   -0.9094  -10.7986    3.7580 C   0  0  0  0  0  0
   -0.9383  -10.6690    2.1616 C   0  0  0  0  0  0
   -2.2539  -10.5436    1.2774 C   0  0  0  0  0  0
   -2.0264  -10.7321   -0.3456 C   0  0  0  0  0  0
   -1.3657   -9.4680   -0.8929 C   0  0  0  0  0  0
   -1.1861  -12.0119   -0.7938 C   0  0  0  0  0  0
    0.1938  -11.9421   -1.6363 C   0  0  0  0  0  0
    0.4183  -10.9132   -2.7969 C   0  0  0  0  0  0
    1.9024  -10.7045   -3.3474 C   0  0  0  0  0  0
    2.2990   -9.6529   -4.4572 C   0  0  0  0  0  0
    2.0430   -9.9847   -5.9511 C   0  0  0  0  0  0
    0.5419  -10.2242   -6.3735 C   0  0  0  0  0  0
   -0.2820   -8.9708   -6.6939 C   0  0  0  0  0  0
   -1.8058   -9.1371   -6.9557 C   0  0  0  0  0  0
   -2.8051   -9.2530   -5.7667 C   0  0  0  0  0  0
   -2.2627   -8.8994   -4.3890 C   0  0  0  0  0  0
   -4.0480   -8.5107   -6.0506 N   0  0  0  0  0  0
   -2.1930   -7.9267   -7.6549 O   0  0  0  0  0  0
    0.5373  -11.0775   -7.5231 O   0  0  0  0  0  0
    1.2062  -11.6363   -0.6626 O   0  0  0  0  0  0
   -0.1714   -9.4779    1.8367 O   0  0  0  0  0  0
    0.9922   -9.6591    1.1595 C   0  0  0  0  0  0
    1.2086   -9.3457    0.0044 O   0  0  0  0  0  0
    2.0125  -10.2236    2.1091 C   0  0  0  0  0  0
    3.4547   -9.9034    1.6848 C   0  0  0  0  0  0
    4.4862  -10.3287    2.7376 C   0  0  0  0  0  0
    3.8745  -11.2663    3.7525 C   0  0  0  0  0  0
    3.5964  -12.4365    3.5136 O   0  0  0  0  0  0
    3.6640  -10.6961    4.9480 O   0  0  0  0  0  0
    3.6904  -10.6727    0.3776 C   0  0  0  0  0  0
    3.9730  -10.1247   -0.6770 O   0  0  0  0  0  0
    3.5120  -11.9972    0.4755 O   0  0  0  0  0  0
   -1.2047   -9.5069    4.4244 O   0  0  0  0  0  0
   -0.5045   -9.1834    5.5747 C   0  0  0  0  0  0
    0.5702   -9.6732    5.8966 O   0  0  0  0  0  0
   -1.2274   -8.1270    6.4207 C   0  0  0  0  0  0
   -1.5419   -8.5373    7.8928 C   0  0  0  0  0  0
   -1.5904   -7.4272    8.9585 C   0  0  0  0  0  0
   -1.6106   -7.9615   10.3616 C   0  0  0  0  0  0
   -2.5546   -8.5267   10.8964 O   0  0  0  0  0  0
   -0.4452   -7.7730   10.9993 O   0  0  0  0  0  0
   -2.8100   -9.3832    8.0620 C   0  0  0  0  0  0
   -3.7439   -9.3355    7.2859 O   0  0  0  0  0  0
   -2.7824  -10.2722    9.0770 O   0  0  0  0  0  0
   -4.7233   -8.6944   -5.3099 H   0  0  0  0  0  0
   -4.4732   -8.8969   -6.8965 H   0  0  0  0  0  0
   -1.7592   -7.9986   -8.5312 H   0  0  0  0  0  0
   -0.3582  -11.4500   -7.6220 H   0  0  0  0  0  0
    2.0697  -11.8677   -1.0438 H   0  0  0  0  0  0
    3.8177   -9.7324    4.9828 H   0  0  0  0  0  0
    3.3446  -12.3216    1.3951 H   0  0  0  0  0  0
   -0.5189   -8.2334   11.8618 H   0  0  0  0  0  0
   -3.5727  -10.2666    9.6614 H   0  0  0  0  0  0
  1  2  1  0  0  0
  2  3  1  0  0  0
  3  4  1  0  0  0
  4  5  1  0  0  0
  5  6  1  0  0  0
  5  7  1  0  0  0
  7  8  1  0  0  0
  7 39  1  0  0  0
  8  9  1  0  0  0
  8 27  1  0  0  0
  9 10  1  0  0  0
 10 11  1  0  0  0
 10 12  1  0  0  0
 12 13  1  0  0  0
 13 14  1  0  0  0
 13 26  1  0  0  0
 14 15  1  0  0  0
 15 16  1  0  0  0
 16 17  1  0  0  0
 17 18  1  0  0  0
 18 19  1  0  0  0
 18 25  1  0  0  0
 19 20  1  0  0  0
 20 21  1  0  0  0
 20 24  1  0  0  0
 21 22  1  0  0  0
 21 23  1  0  0  0
 23 51  1  0  0  0
 23 52  1  0  0  0
 24 53  1  0  0  0
 25 54  1  0  0  0
 26 55  1  0  0  0
 27 28  1  0  0  0
 28 29  2  0  0  0
 28 30  1  0  0  0
 30 31  1  0  0  0
 31 32  1  0  0  0
 31 36  1  0  0  0
 32 33  1  0  0  0
 33 34  2  0  0  0
 33 35  1  0  0  0
 35 56  1  0  0  0
 36 37  2  0  0  0
 36 38  1  0  0  0
 38 57  1  0  0  0
 39 40  1  0  0  0
 40 41  2  0  0  0
 40 42  1  0  0  0
 42 43  1  0  0  0
 43 44  1  0  0  0
 43 48  1  0  0  0
 44 45  1  0  0  0
 45 46  2  0  0  0
 45 47  1  0  0  0
 47 58  1  0  0  0
 48 49  2  0  0  0
 48 50  1  0  0  0
 50 59  1  0  0  0
M  END
>  <AUTHOR>
    GENERATED BY OPEN BABEL 2.4.1

>  <CHROM.1>
158.77912814,-162.34054283,-88.59875008,113.84312347,55.07058777,85.49598977
-168.08598382,113.68007849,-74.61035139,-120.54221415,-38.91632993,166.77881694
161.60302332,-176.66794195,-79.86586505,61.43273421,84.04944231,-173.08974178
162.70085772,81.16109387,12.67256650,68.77781303,173.29743131,110.25962316
-154.72432173,173.00732121,14.73393011,119.67493894,73.46570383,7.65755506
-6.08993931,20.88292543,123.11442137,150.03737203,-167.85011628,-26.40597664
-71.75528537,-174.07638942,131.76125316,0.02455677,-10.20875365,1.71127427
-1.62230413,0.37119677,-1.55597534

>  <COMPND>
    UNNAMED

>  <MASTER>
        0    0    0    0    0    0    0    0  109    0  109    0

>  <Name>
FB1.pdb

>  <RI>
0

>  <Rbt.Current_Directory>
/cluster/tossine/F10/p3/0_clust01/stat

>  <Rbt.Executable>
rbdock/0.1.0

>  <Rbt.Library>
librxdock.so/0.1.0

>  <Rbt.Parameter_File>
/cluster/rxdock/data/scripts/dock.prm

>  <Rbt.Receptor>
rx_3.prm

>  <SCORE>
45.3729

>  <SCORE.INTER>
3.97814

>  <SCORE.INTER.CONST>
1

>  <SCORE.INTER.POLAR>
-1.67552

>  <SCORE.INTER.REPUL>
0.134151

>  <SCORE.INTER.ROT>
32

>  <SCORE.INTER.VDW>
-28.3958

>  <SCORE.INTER.norm>
0.0795629

>  <SCORE.INTRA>
37.5322

>  <SCORE.INTRA.DIHEDRAL>
55.945

>  <SCORE.INTRA.DIHEDRAL.0>
47.3121

>  <SCORE.INTRA.POLAR>
1.30539

>  <SCORE.INTRA.POLAR.0>
-1.47808

>  <SCORE.INTRA.REPUL>
0

>  <SCORE.INTRA.REPUL.0>
0

>  <SCORE.INTRA.VDW>
5.12133

>  <SCORE.INTRA.VDW.0>
-2.78316

>  <SCORE.INTRA.norm>
0.750643

>  <SCORE.RESTR>
3.86257

>  <SCORE.RESTR.CAVITY>
3.86257

>  <SCORE.RESTR.norm>
0.0772514

>  <SCORE.SYSTEM>
0

>  <SCORE.SYSTEM.CONST>
0

>  <SCORE.SYSTEM.DIHEDRAL>
0

>  <SCORE.SYSTEM.norm>
0

>  <SCORE.heavy>
50

>  <SCORE.norm>
0.907458

$$$$
