FB1.pdb
  RxDock  10072011423D
librxdock.so/0.1.0
 59 58  0  0  0  0  0  0  0  0999 V2000
   -6.5272  -11.0090    3.9253 C   0  0  0  0  0  0
   -5.3532  -11.6544    4.6578 C   0  0  0  0  0  0
   -4.0885  -11.6924    3.7841 C   0  0  0  0  0  0
   -3.4167  -10.3076    3.6094 C   0  0  0  0  0  0
   -2.1227  -10.3071    2.7229 C   0  0  0  0  0  0
   -1.4248   -8.9367    2.8832 C   0  0  0  0  0  0
   -1.1250  -11.4947    3.0580 C   0  0  0  0  0  0
   -0.1327  -11.9603    1.8899 C   0  0  0  0  0  0
    0.0525  -11.2175    0.4963 C   0  0  0  0  0  0
   -1.3205  -10.5497   -0.1283 C   0  0  0  0  0  0
   -1.1378   -9.0342   -0.1910 C   0  0  0  0  0  0
   -1.7797  -11.0926   -1.5563 C   0  0  0  0  0  0
   -0.8587  -11.0413   -2.8859 C   0  0  0  0  0  0
   -1.4186  -10.5914   -4.2788 C   0  0  0  0  0  0
   -2.9296  -10.0819   -4.3591 C   0  0  0  0  0  0
   -3.3611   -8.5646   -4.2800 C   0  0  0  0  0  0
   -3.3312   -7.6933   -5.5635 C   0  0  0  0  0  0
   -4.4743   -6.6160   -5.7117 C   0  0  0  0  0  0
   -4.2658   -5.2962   -4.9586 C   0  0  0  0  0  0
   -5.4414   -4.7402   -4.1059 C   0  0  0  0  0  0
   -5.3410   -4.6967   -2.5524 C   0  0  0  0  0  0
   -6.6077   -4.3097   -1.8021 C   0  0  0  0  0  0
   -4.7806   -5.9560   -2.0266 N   0  0  0  0  0  0
   -5.5672   -3.3538   -4.5130 O   0  0  0  0  0  0
   -4.6290   -6.3250   -7.1050 O   0  0  0  0  0  0
    0.1826  -10.0992   -2.5780 O   0  0  0  0  0  0
    1.1998  -11.9741    2.4701 O   0  0  0  0  0  0
    1.8153  -10.7737    2.6305 C   0  0  0  0  0  0
    1.2737   -9.6848    2.6521 O   0  0  0  0  0  0
    3.2778  -11.0184    2.8807 C   0  0  0  0  0  0
    3.5500  -11.5851    4.2833 C   0  0  0  0  0  0
    4.9924  -11.3429    4.7463 C   0  0  0  0  0  0
    5.4266   -9.9246    4.4577 C   0  0  0  0  0  0
    5.7555   -9.5291    3.3445 O   0  0  0  0  0  0
    5.4172   -9.1322    5.5398 O   0  0  0  0  0  0
    2.5695  -10.8714    5.2242 C   0  0  0  0  0  0
    2.3626   -9.6681    5.1840 O   0  0  0  0  0  0
    1.9920  -11.6713    6.1312 O   0  0  0  0  0  0
   -0.4051  -11.2461    4.3307 O   0  0  0  0  0  0
   -0.8081  -11.9365    5.4616 C   0  0  0  0  0  0
   -0.3433  -13.0090    5.8253 O   0  0  0  0  0  0
   -1.9182  -11.2049    6.2277 C   0  0  0  0  0  0
   -1.4779  -10.4976    7.5469 C   0  0  0  0  0  0
   -0.8908   -9.0779    7.4454 C   0  0  0  0  0  0
   -1.9327   -8.0300    7.1792 C   0  0  0  0  0  0
   -2.4978   -7.3539    8.0277 O   0  0  0  0  0  0
   -2.1874   -7.8805    5.8703 O   0  0  0  0  0  0
   -2.5507  -10.4668    8.6426 C   0  0  0  0  0  0
   -2.5557   -9.6461    9.5388 O   0  0  0  0  0  0
   -3.5600  -11.3496    8.4902 O   0  0  0  0  0  0
   -5.4132   -6.7227   -2.2512 H   0  0  0  0  0  0
   -4.7750   -5.9097   -1.0051 H   0  0  0  0  0  0
   -6.4136   -3.0564   -4.1174 H   0  0  0  0  0  0
   -3.7431   -6.1809   -7.4858 H   0  0  0  0  0  0
    0.8177  -10.1019   -3.3136 H   0  0  0  0  0  0
    5.7205   -8.2165    5.3882 H   0  0  0  0  0  0
    1.5059  -11.1939    6.8486 H   0  0  0  0  0  0
   -1.6191   -8.5247    5.3977 H   0  0  0  0  0  0
   -4.3352  -11.2061    9.0772 H   0  0  0  0  0  0
  1  2  1  0  0  0
  2  3  1  0  0  0
  3  4  1  0  0  0
  4  5  1  0  0  0
  5  6  1  0  0  0
  5  7  1  0  0  0
  7  8  1  0  0  0
  7 39  1  0  0  0
  8  9  1  0  0  0
  8 27  1  0  0  0
  9 10  1  0  0  0
 10 11  1  0  0  0
 10 12  1  0  0  0
 12 13  1  0  0  0
 13 14  1  0  0  0
 13 26  1  0  0  0
 14 15  1  0  0  0
 15 16  1  0  0  0
 16 17  1  0  0  0
 17 18  1  0  0  0
 18 19  1  0  0  0
 18 25  1  0  0  0
 19 20  1  0  0  0
 20 21  1  0  0  0
 20 24  1  0  0  0
 21 22  1  0  0  0
 21 23  1  0  0  0
 23 51  1  0  0  0
 23 52  1  0  0  0
 24 53  1  0  0  0
 25 54  1  0  0  0
 26 55  1  0  0  0
 27 28  1  0  0  0
 28 29  2  0  0  0
 28 30  1  0  0  0
 30 31  1  0  0  0
 31 32  1  0  0  0
 31 36  1  0  0  0
 32 33  1  0  0  0
 33 34  2  0  0  0
 33 35  1  0  0  0
 35 56  1  0  0  0
 36 37  2  0  0  0
 36 38  1  0  0  0
 38 57  1  0  0  0
 39 40  1  0  0  0
 40 41  2  0  0  0
 40 42  1  0  0  0
 42 43  1  0  0  0
 43 44  1  0  0  0
 43 48  1  0  0  0
 44 45  1  0  0  0
 45 46  2  0  0  0
 45 47  1  0  0  0
 47 58  1  0  0  0
 48 49  2  0  0  0
 48 50  1  0  0  0
 50 59  1  0  0  0
M  END
>  <AUTHOR>
    GENERATED BY OPEN BABEL 2.4.1

>  <CHROM.1>
73.20546776,-179.97577749,-168.62832494,155.24484619,7.87215754,103.45379730
-35.73684203,-77.21952273,116.16546654,-57.70951838,-135.68997402,3.84135028
174.16523956,94.88517336,84.03747416,143.90069800,81.50382858,-132.21052633
-46.94829530,111.80948334,-172.16666376,168.83770404,-63.22421961,19.26765001
-72.77162880,-158.18436185,45.10932790,-44.63452467,-77.33157107,178.15255503
168.27220945,91.71667716,-105.10969796,84.72743043,74.81318441,-156.96365901
94.59444042,0.82749574,-167.69903316,-1.26175245,-9.50849797,2.05752796,2.00414316
0.33414392,-1.36727070

>  <COMPND>
    UNNAMED

>  <MASTER>
        0    0    0    0    0    0    0    0  109    0  109    0

>  <Name>
FB1.pdb

>  <RI>
0

>  <Rbt.Current_Directory>
/cluster/tossine/F10/p3/0_clust01/stat

>  <Rbt.Executable>
rbdock/0.1.0

>  <Rbt.Library>
librxdock.so/0.1.0

>  <Rbt.Parameter_File>
/cluster/rxdock/data/scripts/dock.prm

>  <Rbt.Receptor>
rx_3.prm

>  <SCORE>
45.1002

>  <SCORE.INTER>
5.72395

>  <SCORE.INTER.CONST>
1

>  <SCORE.INTER.POLAR>
-2.47019

>  <SCORE.INTER.REPUL>
0.131586

>  <SCORE.INTER.ROT>
32

>  <SCORE.INTER.VDW>
-23.9353

>  <SCORE.INTER.norm>
0.114479

>  <SCORE.INTRA>
36.7301

>  <SCORE.INTRA.DIHEDRAL>
58.211

>  <SCORE.INTRA.DIHEDRAL.0>
47.3121

>  <SCORE.INTRA.POLAR>
1.47808

>  <SCORE.INTRA.POLAR.0>
-1.47808

>  <SCORE.INTRA.REPUL>
0

>  <SCORE.INTRA.REPUL.0>
0

>  <SCORE.INTRA.VDW>
2.59919

>  <SCORE.INTRA.VDW.0>
-2.78316

>  <SCORE.INTRA.norm>
0.734603

>  <SCORE.RESTR>
2.64612

>  <SCORE.RESTR.CAVITY>
2.64612

>  <SCORE.RESTR.norm>
0.0529224

>  <SCORE.SYSTEM>
0

>  <SCORE.SYSTEM.CONST>
0

>  <SCORE.SYSTEM.DIHEDRAL>
0

>  <SCORE.SYSTEM.norm>
0

>  <SCORE.heavy>
50

>  <SCORE.norm>
0.902004

$$$$
