FB1.pdb
  RxDock  10072011483D
librxdock.so/0.1.0
 59 58  0  0  0  0  0  0  0  0999 V2000
   -2.2481  -11.0110    8.5510 C   0  0  0  0  0  0
   -2.4644  -11.3099    7.0694 C   0  0  0  0  0  0
   -1.1679  -11.7770    6.3875 C   0  0  0  0  0  0
   -1.3851  -12.3175    4.9521 C   0  0  0  0  0  0
   -0.0709  -12.5638    4.1320 C   0  0  0  0  0  0
   -0.4280  -13.4027    2.8832 C   0  0  0  0  0  0
    0.6796  -11.2272    3.7221 C   0  0  0  0  0  0
    1.3067  -11.1695    2.2491 C   0  0  0  0  0  0
    0.4817  -10.9225    0.9125 C   0  0  0  0  0  0
    1.3765  -10.9308   -0.4734 C   0  0  0  0  0  0
    2.1102  -12.2674   -0.5691 C   0  0  0  0  0  0
    0.5778  -10.6609   -1.8276 C   0  0  0  0  0  0
    1.2349  -10.7562   -3.3033 C   0  0  0  0  0  0
    0.4543  -10.3455   -4.5988 C   0  0  0  0  0  0
    1.2957   -9.9519   -5.8973 C   0  0  0  0  0  0
    0.6574   -9.4418   -7.2489 C   0  0  0  0  0  0
    1.5097   -9.4435   -8.5455 C   0  0  0  0  0  0
    1.1649   -8.3388   -9.6179 C   0  0  0  0  0  0
   -0.0631   -7.4677   -9.3253 C   0  0  0  0  0  0
   -0.5258   -6.4566  -10.4124 C   0  0  0  0  0  0
   -0.0440   -6.6034  -11.8861 C   0  0  0  0  0  0
   -0.4599   -7.8756  -12.6113 C   0  0  0  0  0  0
   -0.3953   -5.4077  -12.6755 N   0  0  0  0  0  0
   -1.9665   -6.6135  -10.4710 O   0  0  0  0  0  0
    2.3060   -7.4850   -9.7550 O   0  0  0  0  0  0
    2.3738   -9.8801   -3.2580 O   0  0  0  0  0  0
    2.2902  -10.0995    2.2678 O   0  0  0  0  0  0
    3.4361  -10.3270    2.9611 C   0  0  0  0  0  0
    4.5240  -10.5914    2.4858 O   0  0  0  0  0  0
    3.1622  -10.0974    4.4218 C   0  0  0  0  0  0
    4.0409  -10.9706    5.3316 C   0  0  0  0  0  0
    4.4397  -10.2545    6.6283 C   0  0  0  0  0  0
    5.3125   -9.0546    6.3422 C   0  0  0  0  0  0
    5.7256   -8.7676    5.2238 O   0  0  0  0  0  0
    5.5941   -8.3264    7.4327 O   0  0  0  0  0  0
    3.2053  -12.2167    5.6553 C   0  0  0  0  0  0
    2.8167  -12.9994    4.8016 O   0  0  0  0  0  0
    2.8926  -12.3515    6.9515 O   0  0  0  0  0  0
   -0.1508  -10.0345    4.0181 O   0  0  0  0  0  0
   -1.3582   -9.8909    3.3549 C   0  0  0  0  0  0
   -1.8005  -10.6842    2.5343 O   0  0  0  0  0  0
   -2.0996   -8.6109    3.7626 C   0  0  0  0  0  0
   -3.0507   -8.0062    2.6836 C   0  0  0  0  0  0
   -3.7312   -6.6600    2.9919 C   0  0  0  0  0  0
   -3.4327   -6.1548    4.3739 C   0  0  0  0  0  0
   -3.3380   -6.8436    5.3805 O   0  0  0  0  0  0
   -3.2528   -4.8256    4.4067 O   0  0  0  0  0  0
   -2.4358   -7.8927    1.2831 C   0  0  0  0  0  0
   -1.5275   -8.6039    0.9012 O   0  0  0  0  0  0
   -3.0416   -7.0174    0.4536 O   0  0  0  0  0  0
   -0.0745   -5.5343  -13.6344 H   0  0  0  0  0  0
    0.1415   -4.6129  -12.3209 H   0  0  0  0  0  0
   -2.1042   -7.5720  -10.6251 H   0  0  0  0  0  0
    2.0537   -6.7277  -10.3147 H   0  0  0  0  0  0
    2.9942  -10.2275   -2.5954 H   0  0  0  0  0  0
    5.1612   -8.6243    8.2557 H   0  0  0  0  0  0
    2.2307  -13.0618    7.1419 H   0  0  0  0  0  0
   -3.2039   -4.5715    5.3524 H   0  0  0  0  0  0
   -2.6452   -6.9457   -0.4430 H   0  0  0  0  0  0
  1  2  1  0  0  0
  2  3  1  0  0  0
  3  4  1  0  0  0
  4  5  1  0  0  0
  5  6  1  0  0  0
  5  7  1  0  0  0
  7  8  1  0  0  0
  7 39  1  0  0  0
  8  9  1  0  0  0
  8 27  1  0  0  0
  9 10  1  0  0  0
 10 11  1  0  0  0
 10 12  1  0  0  0
 12 13  1  0  0  0
 13 14  1  0  0  0
 13 26  1  0  0  0
 14 15  1  0  0  0
 15 16  1  0  0  0
 16 17  1  0  0  0
 17 18  1  0  0  0
 18 19  1  0  0  0
 18 25  1  0  0  0
 19 20  1  0  0  0
 20 21  1  0  0  0
 20 24  1  0  0  0
 21 22  1  0  0  0
 21 23  1  0  0  0
 23 51  1  0  0  0
 23 52  1  0  0  0
 24 53  1  0  0  0
 25 54  1  0  0  0
 26 55  1  0  0  0
 27 28  1  0  0  0
 28 29  2  0  0  0
 28 30  1  0  0  0
 30 31  1  0  0  0
 31 32  1  0  0  0
 31 36  1  0  0  0
 32 33  1  0  0  0
 33 34  2  0  0  0
 33 35  1  0  0  0
 35 56  1  0  0  0
 36 37  2  0  0  0
 36 38  1  0  0  0
 38 57  1  0  0  0
 39 40  1  0  0  0
 40 41  2  0  0  0
 40 42  1  0  0  0
 42 43  1  0  0  0
 43 44  1  0  0  0
 43 48  1  0  0  0
 44 45  1  0  0  0
 45 46  2  0  0  0
 45 47  1  0  0  0
 47 58  1  0  0  0
 48 49  2  0  0  0
 48 50  1  0  0  0
 50 59  1  0  0  0
M  END
>  <AUTHOR>
    GENERATED BY OPEN BABEL 2.4.1

>  <CHROM.1>
170.28521134,169.61782065,166.66460417,-139.57532386,77.47523509,-62.94041866
-179.24098568,71.45614936,57.05407573,-174.29923163,-173.77224975,157.56371286
62.73496674,-176.49300231,-164.02771675,-150.25851868,-5.72562469,-174.27149637
-171.76908139,17.62784104,62.57464375,-54.19558268,-179.60455208,103.82319071
149.92277562,144.90740619,-64.45781286,61.72993516,-5.34297893,-3.63898861
170.09690064,0.16613847,152.29014004,-175.02409780,-3.77277279,25.17270307
-37.94010978,171.41719115,179.94196219,0.49663236,-9.50284997,0.27070850
1.51211089,-0.43501535,1.71763289

>  <COMPND>
    UNNAMED

>  <MASTER>
        0    0    0    0    0    0    0    0  109    0  109    0

>  <Name>
FB1.pdb

>  <RI>
0

>  <Rbt.Current_Directory>
/cluster/tossine/F10/p3/0_clust01/stat

>  <Rbt.Executable>
rbdock/0.1.0

>  <Rbt.Library>
librxdock.so/0.1.0

>  <Rbt.Parameter_File>
/cluster/rxdock/data/scripts/dock.prm

>  <Rbt.Receptor>
rx_3.prm

>  <SCORE>
31.2727

>  <SCORE.INTER>
3.11665

>  <SCORE.INTER.CONST>
1

>  <SCORE.INTER.POLAR>
-2.33683

>  <SCORE.INTER.REPUL>
0.882352

>  <SCORE.INTER.ROT>
32

>  <SCORE.INTER.VDW>
-30.7499

>  <SCORE.INTER.norm>
0.0623329

>  <SCORE.INTRA>
25.8436

>  <SCORE.INTRA.DIHEDRAL>
24.5966

>  <SCORE.INTRA.DIHEDRAL.0>
47.3121

>  <SCORE.INTRA.POLAR>
1.47808

>  <SCORE.INTRA.POLAR.0>
-1.47808

>  <SCORE.INTRA.REPUL>
0.00645484

>  <SCORE.INTRA.REPUL.0>
0

>  <SCORE.INTRA.VDW>
8.4876

>  <SCORE.INTRA.VDW.0>
-2.78316

>  <SCORE.INTRA.norm>
0.516873

>  <SCORE.RESTR>
2.3124

>  <SCORE.RESTR.CAVITY>
2.3124

>  <SCORE.RESTR.norm>
0.0462479

>  <SCORE.SYSTEM>
0

>  <SCORE.SYSTEM.CONST>
0

>  <SCORE.SYSTEM.DIHEDRAL>
0

>  <SCORE.SYSTEM.norm>
0

>  <SCORE.heavy>
50

>  <SCORE.norm>
0.625453

$$$$
