FB1.pdb
  RxDock  10072012093D
librxdock.so/0.1.0
 59 58  0  0  0  0  0  0  0  0999 V2000
    5.3432  -11.1858    3.2254 C   0  0  0  0  0  0
    4.1048  -10.2980    3.3223 C   0  0  0  0  0  0
    2.8293  -11.0534    2.9141 C   0  0  0  0  0  0
    2.4830  -12.2343    3.8550 C   0  0  0  0  0  0
    1.8559  -11.8210    5.2321 C   0  0  0  0  0  0
    2.8004  -10.8010    5.9091 C   0  0  0  0  0  0
    0.3854  -11.2376    5.1087 C   0  0  0  0  0  0
   -0.0674  -10.7104    3.6653 C   0  0  0  0  0  0
   -0.2625  -11.6228    2.3777 C   0  0  0  0  0  0
   -0.3651  -10.8040    0.9493 C   0  0  0  0  0  0
    1.0203  -10.2630    0.5997 C   0  0  0  0  0  0
   -0.9481  -11.6222   -0.2898 C   0  0  0  0  0  0
   -0.9906  -11.0627   -1.8076 C   0  0  0  0  0  0
   -2.3295  -10.6691   -2.5208 C   0  0  0  0  0  0
   -2.3258  -10.5211   -4.1105 C   0  0  0  0  0  0
   -1.1343   -9.9026   -4.9426 C   0  0  0  0  0  0
    0.3280  -10.1644   -4.4947 C   0  0  0  0  0  0
    1.4340   -9.2237   -5.1118 C   0  0  0  0  0  0
    2.7243   -9.0670   -4.2974 C   0  0  0  0  0  0
    3.2336  -10.2884   -3.4807 C   0  0  0  0  0  0
    4.4273  -10.1371   -2.4920 C   0  0  0  0  0  0
    4.9715  -11.4228   -1.8851 C   0  0  0  0  0  0
    5.5113   -9.3386   -3.0951 N   0  0  0  0  0  0
    2.1065  -10.6727   -2.6525 O   0  0  0  0  0  0
    1.7727   -9.7308   -6.4071 O   0  0  0  0  0  0
   -0.2120   -9.8546   -1.7782 O   0  0  0  0  0  0
   -1.3594  -10.0718    3.8529 O   0  0  0  0  0  0
   -1.6970   -9.0928    2.9738 C   0  0  0  0  0  0
   -0.9859   -8.6336    2.1004 O   0  0  0  0  0  0
   -3.1414   -8.7350    3.1914 C   0  0  0  0  0  0
   -3.4295   -7.2503    2.9176 C   0  0  0  0  0  0
   -4.8765   -7.0039    2.4717 C   0  0  0  0  0  0
   -4.9265   -6.4342    1.0730 C   0  0  0  0  0  0
   -5.9678   -6.1305    0.5011 O   0  0  0  0  0  0
   -3.7170   -6.2888    0.5118 O   0  0  0  0  0  0
   -3.1544   -6.5167    4.2375 C   0  0  0  0  0  0
   -3.0202   -7.0938    5.3058 O   0  0  0  0  0  0
   -3.1222   -5.1812    4.1317 O   0  0  0  0  0  0
   -0.6102  -12.1664    5.6970 O   0  0  0  0  0  0
   -0.8719  -13.3559    5.0377 C   0  0  0  0  0  0
   -0.1470  -13.8545    4.1867 O   0  0  0  0  0  0
   -2.1891  -13.9979    5.4928 C   0  0  0  0  0  0
   -3.4247  -13.0465    5.5426 C   0  0  0  0  0  0
   -3.3693  -11.8382    6.4952 C   0  0  0  0  0  0
   -4.5070  -10.8794    6.2934 C   0  0  0  0  0  0
   -4.3993   -9.6848    6.0531 O   0  0  0  0  0  0
   -5.7046  -11.4775    6.3854 O   0  0  0  0  0  0
   -3.8831  -12.5245    4.1752 C   0  0  0  0  0  0
   -3.1610  -11.8839    3.4371 O   0  0  0  0  0  0
   -5.1165  -12.9142    3.7901 O   0  0  0  0  0  0
    6.2608   -9.2245   -2.4141 H   0  0  0  0  0  0
    5.1638   -8.3922   -3.2655 H   0  0  0  0  0  0
    2.3604  -11.5429   -2.2788 H   0  0  0  0  0  0
    2.0889  -10.6470   -6.3020 H   0  0  0  0  0  0
    0.7259  -10.0996   -1.8484 H   0  0  0  0  0  0
   -3.0113   -5.9867    1.1152 H   0  0  0  0  0  0
   -2.9710   -4.7057    4.9860 H   0  0  0  0  0  0
   -6.3517  -10.8791    5.9559 H   0  0  0  0  0  0
   -5.6256  -13.4200    4.4617 H   0  0  0  0  0  0
  1  2  1  0  0  0
  2  3  1  0  0  0
  3  4  1  0  0  0
  4  5  1  0  0  0
  5  6  1  0  0  0
  5  7  1  0  0  0
  7  8  1  0  0  0
  7 39  1  0  0  0
  8  9  1  0  0  0
  8 27  1  0  0  0
  9 10  1  0  0  0
 10 11  1  0  0  0
 10 12  1  0  0  0
 12 13  1  0  0  0
 13 14  1  0  0  0
 13 26  1  0  0  0
 14 15  1  0  0  0
 15 16  1  0  0  0
 16 17  1  0  0  0
 17 18  1  0  0  0
 18 19  1  0  0  0
 18 25  1  0  0  0
 19 20  1  0  0  0
 20 21  1  0  0  0
 20 24  1  0  0  0
 21 22  1  0  0  0
 21 23  1  0  0  0
 23 51  1  0  0  0
 23 52  1  0  0  0
 24 53  1  0  0  0
 25 54  1  0  0  0
 26 55  1  0  0  0
 27 28  1  0  0  0
 28 29  2  0  0  0
 28 30  1  0  0  0
 30 31  1  0  0  0
 31 32  1  0  0  0
 31 36  1  0  0  0
 32 33  1  0  0  0
 33 34  2  0  0  0
 33 35  1  0  0  0
 35 56  1  0  0  0
 36 37  2  0  0  0
 36 38  1  0  0  0
 38 57  1  0  0  0
 39 40  1  0  0  0
 40 41  2  0  0  0
 40 42  1  0  0  0
 42 43  1  0  0  0
 43 44  1  0  0  0
 43 48  1  0  0  0
 44 45  1  0  0  0
 45 46  2  0  0  0
 45 47  1  0  0  0
 47 58  1  0  0  0
 48 49  2  0  0  0
 48 50  1  0  0  0
 50 59  1  0  0  0
M  END
>  <AUTHOR>
    GENERATED BY OPEN BABEL 2.4.1

>  <CHROM.1>
64.18373607,76.15035234,-54.01036687,-19.17762431,66.13974160,-70.38270579
-165.50318245,153.20434488,72.11201928,-173.38845646,-109.75419607,-163.25245943
82.23237794,-38.02747690,36.51817102,-163.97822354,155.67999410,34.03525966
-58.56233593,-171.96896836,-171.93747192,168.77079535,177.73679248,-5.45983987
147.23891683,152.27077322,-117.44323310,-13.65037281,-178.72441120,-38.49925440
178.32420463,17.73757937,48.27414980,-61.47409121,170.56685486,-58.89439978
-124.18545899,-161.42315011,5.60919247,-0.76543587,-10.21026752,1.65189947
-0.93508639,-0.42712985,1.91232428

>  <COMPND>
    UNNAMED

>  <MASTER>
        0    0    0    0    0    0    0    0  109    0  109    0

>  <Name>
FB1.pdb

>  <RI>
0

>  <Rbt.Current_Directory>
/cluster/tossine/F10/p3/0_clust01/stat

>  <Rbt.Executable>
rbdock/0.1.0

>  <Rbt.Library>
librxdock.so/0.1.0

>  <Rbt.Parameter_File>
/cluster/rxdock/data/scripts/dock.prm

>  <Rbt.Receptor>
rx_3.prm

>  <SCORE>
46.6516

>  <SCORE.INTER>
18.3742

>  <SCORE.INTER.CONST>
1

>  <SCORE.INTER.POLAR>
-2.08332

>  <SCORE.INTER.REPUL>
0.451256

>  <SCORE.INTER.ROT>
32

>  <SCORE.INTER.VDW>
-14.1988

>  <SCORE.INTER.norm>
0.367483

>  <SCORE.INTRA>
21.2569

>  <SCORE.INTRA.DIHEDRAL>
17.4767

>  <SCORE.INTRA.DIHEDRAL.0>
47.3121

>  <SCORE.INTRA.POLAR>
0.478077

>  <SCORE.INTRA.POLAR.0>
-1.47808

>  <SCORE.INTRA.REPUL>
0.157929

>  <SCORE.INTRA.REPUL.0>
0

>  <SCORE.INTRA.VDW>
10.1034

>  <SCORE.INTRA.VDW.0>
-2.78316

>  <SCORE.INTRA.norm>
0.425138

>  <SCORE.RESTR>
7.02053

>  <SCORE.RESTR.CAVITY>
7.02053

>  <SCORE.RESTR.norm>
0.140411

>  <SCORE.SYSTEM>
0

>  <SCORE.SYSTEM.CONST>
0

>  <SCORE.SYSTEM.DIHEDRAL>
0

>  <SCORE.SYSTEM.norm>
0

>  <SCORE.heavy>
50

>  <SCORE.norm>
0.933032

$$$$
