FB1.pdb
  RxDock  10072012033D
librxdock.so/0.1.0
 59 58  0  0  0  0  0  0  0  0999 V2000
   -0.7299   -6.9777  -12.5174 C   0  0  0  0  0  0
   -1.0138   -6.0951  -11.3043 C   0  0  0  0  0  0
    0.2455   -5.8819  -10.4481 C   0  0  0  0  0  0
    1.4772   -5.4191  -11.2658 C   0  0  0  0  0  0
    2.8315   -5.4113  -10.4745 C   0  0  0  0  0  0
    3.9391   -4.8794  -11.4132 C   0  0  0  0  0  0
    2.7747   -4.5701   -9.1302 C   0  0  0  0  0  0
    3.8544   -4.9299   -8.0028 C   0  0  0  0  0  0
    4.9699   -6.0557   -8.1303 C   0  0  0  0  0  0
    4.5171   -7.3962   -8.9786 C   0  0  0  0  0  0
    5.7750   -8.0831   -9.5078 C   0  0  0  0  0  0
    3.6195   -8.4554   -8.1930 C   0  0  0  0  0  0
    2.4848   -9.3762   -8.8881 C   0  0  0  0  0  0
    1.9168  -10.6677   -8.2059 C   0  0  0  0  0  0
    0.7781  -10.5013   -7.0991 C   0  0  0  0  0  0
    0.6898   -9.2892   -6.0903 C   0  0  0  0  0  0
    0.8124   -9.5525   -4.5662 C   0  0  0  0  0  0
    2.2749   -9.6629   -3.9847 C   0  0  0  0  0  0
    2.6054  -10.9487   -3.2166 C   0  0  0  0  0  0
    2.3553  -10.9758   -1.6820 C   0  0  0  0  0  0
    1.0521  -10.3702   -1.0818 C   0  0  0  0  0  0
   -0.2434  -11.1061   -1.3943 C   0  0  0  0  0  0
    1.1956  -10.1485    0.3696 N   0  0  0  0  0  0
    2.3055  -12.3851   -1.3425 O   0  0  0  0  0  0
    3.1944   -9.5352   -5.0747 O   0  0  0  0  0  0
    1.3510   -8.5072   -9.0489 O   0  0  0  0  0  0
    4.6023   -3.7091   -7.7522 O   0  0  0  0  0  0
    4.6166   -3.2456   -6.4753 C   0  0  0  0  0  0
    4.4330   -3.9037   -5.4690 O   0  0  0  0  0  0
    5.0000   -1.7918   -6.5009 C   0  0  0  0  0  0
    6.5182   -1.5796   -6.3886 C   0  0  0  0  0  0
    7.2994   -2.3293   -7.4754 C   0  0  0  0  0  0
    7.2049   -1.6165   -8.8044 C   0  0  0  0  0  0
    6.1518   -1.2081   -9.2818 O   0  0  0  0  0  0
    8.3889   -1.4693   -9.4171 O   0  0  0  0  0  0
    6.7443   -0.0678   -6.5275 C   0  0  0  0  0  0
    5.8390    0.7256   -6.7358 O   0  0  0  0  0  0
    8.0282    0.3087   -6.4506 O   0  0  0  0  0  0
    2.7305   -3.1144   -9.4110 O   0  0  0  0  0  0
    2.6012   -2.2410   -8.3440 C   0  0  0  0  0  0
    2.1822   -2.5517   -7.2366 O   0  0  0  0  0  0
    3.0464   -0.8161   -8.6986 C   0  0  0  0  0  0
    2.0985   -0.0288   -9.6558 C   0  0  0  0  0  0
    2.4269   -0.0288  -11.1600 C   0  0  0  0  0  0
    1.7762    1.1025  -11.9024 C   0  0  0  0  0  0
    1.1481    2.0214  -11.3948 O   0  0  0  0  0  0
    1.9682    1.0240  -13.2281 O   0  0  0  0  0  0
    0.6131   -0.3840   -9.5165 C   0  0  0  0  0  0
    0.1602   -0.9612   -8.5477 O   0  0  0  0  0  0
   -0.1886    0.0820  -10.4970 O   0  0  0  0  0  0
    1.8066   -9.3481    0.5265 H   0  0  0  0  0  0
    1.6946  -10.9441    0.7739 H   0  0  0  0  0  0
    3.2446  -12.6469   -1.2378 H   0  0  0  0  0  0
    3.1811   -8.6084   -5.3768 H   0  0  0  0  0  0
    1.5138   -7.7014   -8.5305 H   0  0  0  0  0  0
    8.3730   -0.9280  -10.2297 H   0  0  0  0  0  0
    8.6440   -0.3967   -6.1313 H   0  0  0  0  0  0
    1.5324    1.8088  -13.6224 H   0  0  0  0  0  0
   -1.1506   -0.0633  -10.3572 H   0  0  0  0  0  0
  1  2  1  0  0  0
  2  3  1  0  0  0
  3  4  1  0  0  0
  4  5  1  0  0  0
  5  6  1  0  0  0
  5  7  1  0  0  0
  7  8  1  0  0  0
  7 39  1  0  0  0
  8  9  1  0  0  0
  8 27  1  0  0  0
  9 10  1  0  0  0
 10 11  1  0  0  0
 10 12  1  0  0  0
 12 13  1  0  0  0
 13 14  1  0  0  0
 13 26  1  0  0  0
 14 15  1  0  0  0
 15 16  1  0  0  0
 16 17  1  0  0  0
 17 18  1  0  0  0
 18 19  1  0  0  0
 18 25  1  0  0  0
 19 20  1  0  0  0
 20 21  1  0  0  0
 20 24  1  0  0  0
 21 22  1  0  0  0
 21 23  1  0  0  0
 23 51  1  0  0  0
 23 52  1  0  0  0
 24 53  1  0  0  0
 25 54  1  0  0  0
 26 55  1  0  0  0
 27 28  1  0  0  0
 28 29  2  0  0  0
 28 30  1  0  0  0
 30 31  1  0  0  0
 31 32  1  0  0  0
 31 36  1  0  0  0
 32 33  1  0  0  0
 33 34  2  0  0  0
 33 35  1  0  0  0
 35 56  1  0  0  0
 36 37  2  0  0  0
 36 38  1  0  0  0
 38 57  1  0  0  0
 39 40  1  0  0  0
 40 41  2  0  0  0
 40 42  1  0  0  0
 42 43  1  0  0  0
 43 44  1  0  0  0
 43 48  1  0  0  0
 44 45  1  0  0  0
 45 46  2  0  0  0
 45 47  1  0  0  0
 47 58  1  0  0  0
 48 49  2  0  0  0
 48 50  1  0  0  0
 50 59  1  0  0  0
M  END
>  <AUTHOR>
    GENERATED BY OPEN BABEL 2.4.1

>  <CHROM.1>
50.47609412,-170.68304414,-177.95351522,157.46890421,0.08224188,176.37307279
-34.77153970,122.92916171,156.76085796,147.75152469,162.03888500,81.38744614
-12.27980594,-34.33433521,-117.27040603,83.32195087,-124.40879189,-90.42051768
71.30878833,43.04278530,68.43634603,83.38712422,73.28926184,23.66443637,-90.30190966
55.90793756,76.61877618,-2.47209509,-47.61173631,-173.63036331,-12.00074133
-19.72518364,71.60310246,-96.03938449,-159.92442848,17.47556834,6.59852965
-178.54853211,-173.73142061,3.00963414,-4.84273495,-7.74607866,1.34747907
-0.77538739,-0.69607924

>  <COMPND>
    UNNAMED

>  <MASTER>
        0    0    0    0    0    0    0    0  109    0  109    0

>  <Name>
FB1.pdb

>  <RI>
0

>  <Rbt.Current_Directory>
/cluster/tossine/F10/p3/0_clust01/stat

>  <Rbt.Executable>
rbdock/0.1.0

>  <Rbt.Library>
librxdock.so/0.1.0

>  <Rbt.Parameter_File>
/cluster/rxdock/data/scripts/dock.prm

>  <Rbt.Receptor>
rx_3.prm

>  <SCORE>
51.2494

>  <SCORE.INTER>
19.5781

>  <SCORE.INTER.CONST>
1

>  <SCORE.INTER.POLAR>
-2.02713

>  <SCORE.INTER.REPUL>
2.65604

>  <SCORE.INTER.ROT>
32

>  <SCORE.INTER.VDW>
-24.2098

>  <SCORE.INTER.norm>
0.391563

>  <SCORE.INTRA>
23.1288

>  <SCORE.INTRA.DIHEDRAL>
30.9828

>  <SCORE.INTRA.DIHEDRAL.0>
47.3121

>  <SCORE.INTRA.POLAR>
1.47808

>  <SCORE.INTRA.POLAR.0>
-1.47808

>  <SCORE.INTRA.REPUL>
0

>  <SCORE.INTRA.REPUL.0>
0

>  <SCORE.INTRA.VDW>
2.61191

>  <SCORE.INTRA.VDW.0>
-2.78316

>  <SCORE.INTRA.norm>
0.462575

>  <SCORE.RESTR>
8.54245

>  <SCORE.RESTR.CAVITY>
8.54245

>  <SCORE.RESTR.norm>
0.170849

>  <SCORE.SYSTEM>
0

>  <SCORE.SYSTEM.CONST>
0

>  <SCORE.SYSTEM.DIHEDRAL>
0

>  <SCORE.SYSTEM.norm>
0

>  <SCORE.heavy>
50

>  <SCORE.norm>
1.02499

$$$$
