FB1.pdb
  RxDock  10072011423D
librxdock.so/0.1.0
 59 58  0  0  0  0  0  0  0  0999 V2000
   -7.5049  -12.1107    5.2802 C   0  0  0  0  0  0
   -6.0952  -11.7766    5.7624 C   0  0  0  0  0  0
   -5.0272  -12.5738    4.9954 C   0  0  0  0  0  0
   -5.0902  -12.3728    3.4607 C   0  0  0  0  0  0
   -4.5139  -11.0069    2.9482 C   0  0  0  0  0  0
   -5.4627   -9.8762    3.4084 C   0  0  0  0  0  0
   -3.0262  -10.7285    3.4249 C   0  0  0  0  0  0
   -1.9054  -10.6292    2.2848 C   0  0  0  0  0  0
   -1.1370   -9.3002    1.8704 C   0  0  0  0  0  0
   -1.5133   -8.7118    0.3759 C   0  0  0  0  0  0
   -1.1417   -9.7641   -0.6675 C   0  0  0  0  0  0
   -3.0267   -8.2559    0.1604 C   0  0  0  0  0  0
   -3.4660   -6.8016   -0.3970 C   0  0  0  0  0  0
   -4.8398   -6.1417   -0.0318 C   0  0  0  0  0  0
   -5.1146   -4.6460   -0.5182 C   0  0  0  0  0  0
   -5.3704   -4.2332   -2.0211 C   0  0  0  0  0  0
   -6.7611   -3.6855   -2.4375 C   0  0  0  0  0  0
   -6.8747   -3.0792   -3.8896 C   0  0  0  0  0  0
   -7.2970   -1.6075   -3.9801 C   0  0  0  0  0  0
   -7.6246   -1.0193   -5.3819 C   0  0  0  0  0  0
   -6.4960   -0.8046   -6.4334 C   0  0  0  0  0  0
   -6.9408   -0.6317   -7.8790 C   0  0  0  0  0  0
   -5.5974    0.2913   -6.0236 N   0  0  0  0  0  0
   -8.5214   -1.9861   -5.9859 O   0  0  0  0  0  0
   -5.6035   -3.2278   -4.5310 O   0  0  0  0  0  0
   -2.4692   -5.8964    0.1064 O   0  0  0  0  0  0
   -0.8492  -11.5496    2.6719 O   0  0  0  0  0  0
   -0.3973  -11.4674    3.9503 C   0  0  0  0  0  0
   -0.4288  -10.4820    4.6625 O   0  0  0  0  0  0
    0.0611  -12.8331    4.3818 C   0  0  0  0  0  0
    1.5614  -12.8750    4.7129 C   0  0  0  0  0  0
    2.4226  -12.2182    3.6264 C   0  0  0  0  0  0
    3.8947  -12.3708    3.9314 C   0  0  0  0  0  0
    4.4223  -11.9509    4.9556 O   0  0  0  0  0  0
    4.5754  -13.0143    2.9715 O   0  0  0  0  0  0
    1.7220  -12.1188    6.0390 C   0  0  0  0  0  0
    1.6526  -10.9022    6.1256 O   0  0  0  0  0  0
    1.9950  -12.9011    7.0922 O   0  0  0  0  0  0
   -2.9699   -9.5781    4.3594 O   0  0  0  0  0  0
   -3.2678   -9.7978    5.6939 C   0  0  0  0  0  0
   -3.2721  -10.8959    6.2349 O   0  0  0  0  0  0
   -3.5980   -8.4983    6.4400 C   0  0  0  0  0  0
   -2.5785   -8.0719    7.5415 C   0  0  0  0  0  0
   -2.6294   -8.8023    8.8959 C   0  0  0  0  0  0
   -1.9840   -8.0246   10.0064 C   0  0  0  0  0  0
   -1.5647   -6.8782    9.9246 O   0  0  0  0  0  0
   -1.9212   -8.7210   11.1515 O   0  0  0  0  0  0
   -1.1140   -8.0637    7.0861 C   0  0  0  0  0  0
   -0.1883   -8.3062    7.8351 O   0  0  0  0  0  0
   -0.9193   -7.8731    5.7644 O   0  0  0  0  0  0
   -4.8903   -0.0764   -5.3885 H   0  0  0  0  0  0
   -6.1317    0.9600   -5.4643 H   0  0  0  0  0  0
   -7.9567   -2.7667   -6.1673 H   0  0  0  0  0  0
   -5.6694   -2.8513   -5.4279 H   0  0  0  0  0  0
   -2.5566   -5.8605    1.0737 H   0  0  0  0  0  0
    4.0714  -13.6988    2.4910 H   0  0  0  0  0  0
    2.0404  -13.8673    6.8845 H   0  0  0  0  0  0
   -2.5073   -9.4991   11.0401 H   0  0  0  0  0  0
   -1.6906   -8.0826    5.1921 H   0  0  0  0  0  0
  1  2  1  0  0  0
  2  3  1  0  0  0
  3  4  1  0  0  0
  4  5  1  0  0  0
  5  6  1  0  0  0
  5  7  1  0  0  0
  7  8  1  0  0  0
  7 39  1  0  0  0
  8  9  1  0  0  0
  8 27  1  0  0  0
  9 10  1  0  0  0
 10 11  1  0  0  0
 10 12  1  0  0  0
 12 13  1  0  0  0
 13 14  1  0  0  0
 13 26  1  0  0  0
 14 15  1  0  0  0
 15 16  1  0  0  0
 16 17  1  0  0  0
 17 18  1  0  0  0
 18 19  1  0  0  0
 18 25  1  0  0  0
 19 20  1  0  0  0
 20 21  1  0  0  0
 20 24  1  0  0  0
 21 22  1  0  0  0
 21 23  1  0  0  0
 23 51  1  0  0  0
 23 52  1  0  0  0
 24 53  1  0  0  0
 25 54  1  0  0  0
 26 55  1  0  0  0
 27 28  1  0  0  0
 28 29  2  0  0  0
 28 30  1  0  0  0
 30 31  1  0  0  0
 31 32  1  0  0  0
 31 36  1  0  0  0
 32 33  1  0  0  0
 33 34  2  0  0  0
 33 35  1  0  0  0
 35 56  1  0  0  0
 36 37  2  0  0  0
 36 38  1  0  0  0
 38 57  1  0  0  0
 39 40  1  0  0  0
 40 41  2  0  0  0
 40 42  1  0  0  0
 42 43  1  0  0  0
 43 44  1  0  0  0
 43 48  1  0  0  0
 44 45  1  0  0  0
 45 46  2  0  0  0
 45 47  1  0  0  0
 47 58  1  0  0  0
 48 49  2  0  0  0
 48 50  1  0  0  0
 50 59  1  0  0  0
M  END
>  <AUTHOR>
    GENERATED BY OPEN BABEL 2.4.1

>  <CHROM.1>
56.54413540,75.98455996,-69.07195705,116.35495635,110.95085747,82.16500536
-110.82263611,-49.08831867,-61.12004374,127.01621210,-152.47747940,174.13470783
-66.60798725,71.02489164,113.72689709,170.46437304,-120.18859174,-171.25046745
-179.81186474,-69.27733728,162.19632568,-70.05441587,84.50926685,-26.20638077
117.49358819,-48.20020004,-175.62848141,-74.34873363,-58.75688569,-32.28378064
-1.16151564,17.92454945,-113.42301852,-77.59064589,-159.46475067,-148.70323794
6.78893159,-13.18174006,-21.32799401,-2.65429538,-8.35161642,2.59492406,1.05473087
-0.57873510,1.93952767

>  <COMPND>
    UNNAMED

>  <MASTER>
        0    0    0    0    0    0    0    0  109    0  109    0

>  <Name>
FB1.pdb

>  <RI>
0

>  <Rbt.Current_Directory>
/cluster/tossine/F10/p3/0_clust01/stat

>  <Rbt.Executable>
rbdock/0.1.0

>  <Rbt.Library>
librxdock.so/0.1.0

>  <Rbt.Parameter_File>
/cluster/rxdock/data/scripts/dock.prm

>  <Rbt.Receptor>
rx_3.prm

>  <SCORE>
43.3366

>  <SCORE.INTER>
8.54821

>  <SCORE.INTER.CONST>
1

>  <SCORE.INTER.POLAR>
-2.26363

>  <SCORE.INTER.REPUL>
1.52414

>  <SCORE.INTER.ROT>
32

>  <SCORE.INTER.VDW>
-28.7762

>  <SCORE.INTER.norm>
0.170964

>  <SCORE.INTRA>
27.9807

>  <SCORE.INTRA.DIHEDRAL>
36.6053

>  <SCORE.INTRA.DIHEDRAL.0>
47.3121

>  <SCORE.INTRA.POLAR>
0.52302

>  <SCORE.INTRA.POLAR.0>
-1.47808

>  <SCORE.INTRA.REPUL>
0

>  <SCORE.INTRA.REPUL.0>
0

>  <SCORE.INTRA.VDW>
7.89983

>  <SCORE.INTRA.VDW.0>
-2.78316

>  <SCORE.INTRA.norm>
0.559615

>  <SCORE.RESTR>
6.80764

>  <SCORE.RESTR.CAVITY>
6.80764

>  <SCORE.RESTR.norm>
0.136153

>  <SCORE.SYSTEM>
0

>  <SCORE.SYSTEM.CONST>
0

>  <SCORE.SYSTEM.DIHEDRAL>
0

>  <SCORE.SYSTEM.norm>
0

>  <SCORE.heavy>
50

>  <SCORE.norm>
0.866732

$$$$
