FB1.pdb
  RxDock  10072012093D
librxdock.so/0.1.0
 59 58  0  0  0  0  0  0  0  0999 V2000
    3.9236  -12.3906    4.0173 C   0  0  0  0  0  0
    3.3805  -11.0008    3.6938 C   0  0  0  0  0  0
    1.9354  -11.0615    3.1718 C   0  0  0  0  0  0
    0.8981  -11.4174    4.2659 C   0  0  0  0  0  0
   -0.5814  -11.5408    3.7597 C   0  0  0  0  0  0
   -1.4285  -12.1769    4.8859 C   0  0  0  0  0  0
   -1.2072  -10.1604    3.2897 C   0  0  0  0  0  0
   -2.4057  -10.2306    2.2292 C   0  0  0  0  0  0
   -3.7852   -9.4499    2.3545 C   0  0  0  0  0  0
   -3.7708   -7.9063    1.7728 C   0  0  0  0  0  0
   -2.4372   -7.6664    1.0669 C   0  0  0  0  0  0
   -4.9704   -7.5107    0.7986 C   0  0  0  0  0  0
   -5.2026   -6.0246    0.2017 C   0  0  0  0  0  0
   -6.4506   -5.6554   -0.6713 C   0  0  0  0  0  0
   -6.4741   -4.2328   -1.3957 C   0  0  0  0  0  0
   -6.6871   -4.0290   -2.9473 C   0  0  0  0  0  0
   -5.5437   -3.4222   -3.8029 C   0  0  0  0  0  0
   -5.9773   -2.5832   -5.0667 C   0  0  0  0  0  0
   -6.4619   -3.3852   -6.2810 C   0  0  0  0  0  0
   -7.0367   -2.6058   -7.4977 C   0  0  0  0  0  0
   -6.2186   -1.4584   -8.1606 C   0  0  0  0  0  0
   -6.6668   -1.0208   -9.5481 C   0  0  0  0  0  0
   -6.1067   -0.3006   -7.2531 N   0  0  0  0  0  0
   -7.1895   -3.6066   -8.5364 O   0  0  0  0  0  0
   -7.0210   -1.6888   -4.6664 O   0  0  0  0  0  0
   -5.2865   -5.1718    1.3559 O   0  0  0  0  0  0
   -1.8532   -9.7835    0.9614 O   0  0  0  0  0  0
   -0.8667  -10.5421    0.4166 C   0  0  0  0  0  0
    0.0107  -11.1257    1.0242 O   0  0  0  0  0  0
   -1.0963  -10.6275   -1.0671 C   0  0  0  0  0  0
    0.1563  -10.2637   -1.8801 C   0  0  0  0  0  0
    1.2565  -11.3275   -1.7740 C   0  0  0  0  0  0
    2.5609  -10.8215   -2.3448 C   0  0  0  0  0  0
    2.9744  -11.1199   -3.4600 O   0  0  0  0  0  0
    3.2285  -10.0083   -1.5130 O   0  0  0  0  0  0
   -0.3095  -10.1333   -3.3369 C   0  0  0  0  0  0
    0.3687   -9.6135   -4.2099 O   0  0  0  0  0  0
   -1.5471  -10.5938   -3.5651 O   0  0  0  0  0  0
   -1.5445   -9.3023    4.4515 O   0  0  0  0  0  0
   -0.5085   -8.7747    5.2041 C   0  0  0  0  0  0
    0.6737   -8.8199    4.8897 O   0  0  0  0  0  0
   -1.0039   -8.1142    6.4974 C   0  0  0  0  0  0
   -0.9978   -9.0214    7.7667 C   0  0  0  0  0  0
   -0.9971   -8.3363    9.1455 C   0  0  0  0  0  0
   -2.3734   -7.9644    9.6164 C   0  0  0  0  0  0
   -2.9224   -8.3902   10.6234 O   0  0  0  0  0  0
   -2.9674   -7.0708    8.8108 O   0  0  0  0  0  0
   -2.0981  -10.0896    7.7924 C   0  0  0  0  0  0
   -3.1309   -9.9889    7.1601 O   0  0  0  0  0  0
   -1.8016  -11.2103    8.4833 O   0  0  0  0  0  0
   -5.4838    0.3906   -7.6687 H   0  0  0  0  0  0
   -5.6338   -0.6007   -6.3976 H   0  0  0  0  0  0
   -6.2775   -3.9208   -8.7122 H   0  0  0  0  0  0
   -6.6109   -0.9151   -4.2379 H   0  0  0  0  0  0
   -4.4460   -5.2365    1.8394 H   0  0  0  0  0  0
    4.0420   -9.6127   -1.8808 H   0  0  0  0  0  0
   -1.8815  -10.4339   -4.4823 H   0  0  0  0  0  0
   -3.8905   -6.9764    9.1276 H   0  0  0  0  0  0
   -2.5181  -11.8822    8.5206 H   0  0  0  0  0  0
  1  2  1  0  0  0
  2  3  1  0  0  0
  3  4  1  0  0  0
  4  5  1  0  0  0
  5  6  1  0  0  0
  5  7  1  0  0  0
  7  8  1  0  0  0
  7 39  1  0  0  0
  8  9  1  0  0  0
  8 27  1  0  0  0
  9 10  1  0  0  0
 10 11  1  0  0  0
 10 12  1  0  0  0
 12 13  1  0  0  0
 13 14  1  0  0  0
 13 26  1  0  0  0
 14 15  1  0  0  0
 15 16  1  0  0  0
 16 17  1  0  0  0
 17 18  1  0  0  0
 18 19  1  0  0  0
 18 25  1  0  0  0
 19 20  1  0  0  0
 20 21  1  0  0  0
 20 24  1  0  0  0
 21 22  1  0  0  0
 21 23  1  0  0  0
 23 51  1  0  0  0
 23 52  1  0  0  0
 24 53  1  0  0  0
 25 54  1  0  0  0
 26 55  1  0  0  0
 27 28  1  0  0  0
 28 29  2  0  0  0
 28 30  1  0  0  0
 30 31  1  0  0  0
 31 32  1  0  0  0
 31 36  1  0  0  0
 32 33  1  0  0  0
 33 34  2  0  0  0
 33 35  1  0  0  0
 35 56  1  0  0  0
 36 37  2  0  0  0
 36 38  1  0  0  0
 38 57  1  0  0  0
 39 40  1  0  0  0
 40 41  2  0  0  0
 40 42  1  0  0  0
 42 43  1  0  0  0
 43 44  1  0  0  0
 43 48  1  0  0  0
 44 45  1  0  0  0
 45 46  2  0  0  0
 45 47  1  0  0  0
 47 58  1  0  0  0
 48 49  2  0  0  0
 48 50  1  0  0  0
 50 59  1  0  0  0
M  END
>  <AUTHOR>
    GENERATED BY OPEN BABEL 2.4.1

>  <CHROM.1>
71.65028756,-177.83505399,168.44299894,155.19653502,131.71986273,68.82220712
85.49751761,63.59987698,7.61009722,175.56287625,-175.60360186,-170.73202673
60.80347383,125.07199339,-115.57450063,-149.74522317,-75.63651136,173.86368234
80.96780798,53.10719342,163.58818102,-62.80564787,173.83953185,-36.48390510
128.91663722,70.42008773,-168.56052295,165.85707467,-100.98973561,-175.60198623
174.53074885,9.76210095,94.01475662,158.97115459,84.63276859,-23.40163086
118.27136757,172.96348764,178.27325336,-2.28152181,-7.98761349,0.78900506
-1.05722421,0.74169624,-1.41464687

>  <COMPND>
    UNNAMED

>  <MASTER>
        0    0    0    0    0    0    0    0  109    0  109    0

>  <Name>
FB1.pdb

>  <RI>
0

>  <Rbt.Current_Directory>
/cluster/tossine/F10/p3/0_clust01/stat

>  <Rbt.Executable>
rbdock/0.1.0

>  <Rbt.Library>
librxdock.so/0.1.0

>  <Rbt.Parameter_File>
/cluster/rxdock/data/scripts/dock.prm

>  <Rbt.Receptor>
rx_3.prm

>  <SCORE>
44.9501

>  <SCORE.INTER>
8.98243

>  <SCORE.INTER.CONST>
1

>  <SCORE.INTER.POLAR>
-3.12415

>  <SCORE.INTER.REPUL>
0.336444

>  <SCORE.INTER.ROT>
32

>  <SCORE.INTER.VDW>
-19.4777

>  <SCORE.INTER.norm>
0.179649

>  <SCORE.INTRA>
30.4969

>  <SCORE.INTRA.DIHEDRAL>
18.6032

>  <SCORE.INTRA.DIHEDRAL.0>
47.3121

>  <SCORE.INTRA.POLAR>
1.47808

>  <SCORE.INTRA.POLAR.0>
-1.47808

>  <SCORE.INTRA.REPUL>
0

>  <SCORE.INTRA.REPUL.0>
0

>  <SCORE.INTRA.VDW>
16.1698

>  <SCORE.INTRA.VDW.0>
-2.78316

>  <SCORE.INTRA.norm>
0.609938

>  <SCORE.RESTR>
5.47083

>  <SCORE.RESTR.CAVITY>
5.47083

>  <SCORE.RESTR.norm>
0.109417

>  <SCORE.SYSTEM>
0

>  <SCORE.SYSTEM.CONST>
0

>  <SCORE.SYSTEM.DIHEDRAL>
0

>  <SCORE.SYSTEM.norm>
0

>  <SCORE.heavy>
50

>  <SCORE.norm>
0.899003

$$$$
