FB1.pdb
  RxDock  10072012093D
librxdock.so/0.1.0
 59 58  0  0  0  0  0  0  0  0999 V2000
    6.0165   -9.6128    3.8360 C   0  0  0  0  0  0
    5.7300   -9.0582    5.2295 C   0  0  0  0  0  0
    5.1522  -10.1348    6.1630 C   0  0  0  0  0  0
    3.6338  -10.3712    5.9678 C   0  0  0  0  0  0
    3.2305  -10.9640    4.5727 C   0  0  0  0  0  0
    3.2618  -12.5066    4.6733 C   0  0  0  0  0  0
    1.8191  -10.4578    4.0536 C   0  0  0  0  0  0
    1.4689  -10.7367    2.5155 C   0  0  0  0  0  0
    0.2605  -10.0789    1.7183 C   0  0  0  0  0  0
   -0.4828  -11.0718    0.6307 C   0  0  0  0  0  0
   -1.2857  -12.1195    1.4001 C   0  0  0  0  0  0
   -1.4233  -10.3596   -0.4431 C   0  0  0  0  0  0
   -0.9623   -9.9885   -1.9492 C   0  0  0  0  0  0
   -0.7263  -11.0802   -3.0486 C   0  0  0  0  0  0
   -0.5828  -10.6075   -4.5668 C   0  0  0  0  0  0
    0.5187   -9.6005   -5.0837 C   0  0  0  0  0  0
    0.7360   -9.4222   -6.6096 C   0  0  0  0  0  0
   -0.3746   -8.6193   -7.3913 C   0  0  0  0  0  0
   -0.1540   -8.4475   -8.8994 C   0  0  0  0  0  0
    0.7944   -7.3133   -9.3814 C   0  0  0  0  0  0
    1.7412   -7.5369  -10.5976 C   0  0  0  0  0  0
    2.7853   -6.4583  -10.8506 C   0  0  0  0  0  0
    2.3659   -8.8721  -10.5388 N   0  0  0  0  0  0
   -0.0927   -6.2404   -9.7885 O   0  0  0  0  0  0
   -1.6261   -9.2841   -7.1876 O   0  0  0  0  0  0
   -2.0169   -9.1588   -2.4647 O   0  0  0  0  0  0
    2.6490  -10.3599    1.7553 O   0  0  0  0  0  0
    2.7988  -10.9242    0.5288 C   0  0  0  0  0  0
    2.0019  -11.6542   -0.0295 O   0  0  0  0  0  0
    4.0775  -10.4145   -0.0767 C   0  0  0  0  0  0
    4.1500  -10.6560   -1.5929 C   0  0  0  0  0  0
    2.9865  -10.0023   -2.3494 C   0  0  0  0  0  0
    3.0384  -10.3354   -3.8224 C   0  0  0  0  0  0
    3.5249   -9.5934   -4.6689 O   0  0  0  0  0  0
    2.5005  -11.5274   -4.1200 O   0  0  0  0  0  0
    5.4827  -10.0495   -2.0534 C   0  0  0  0  0  0
    6.1002   -9.2224   -1.3999 O   0  0  0  0  0  0
    5.8923  -10.4656   -3.2596 O   0  0  0  0  0  0
    0.7278  -10.8940    4.9585 O   0  0  0  0  0  0
   -0.3715  -10.0658    5.1123 C   0  0  0  0  0  0
   -0.5263   -8.9992    4.5321 O   0  0  0  0  0  0
   -1.3959  -10.6335    6.1035 C   0  0  0  0  0  0
   -2.4774   -9.6291    6.6096 C   0  0  0  0  0  0
   -3.3853   -8.9562    5.5640 C   0  0  0  0  0  0
   -4.1675   -9.9421    4.7450 C   0  0  0  0  0  0
   -4.1349  -11.1586    4.8701 O   0  0  0  0  0  0
   -4.9538   -9.3451    3.8364 O   0  0  0  0  0  0
   -3.3885  -10.1765    7.7153 C   0  0  0  0  0  0
   -4.3581  -10.8727    7.4875 O   0  0  0  0  0  0
   -2.9834   -9.9242    8.9776 O   0  0  0  0  0  0
    2.7605   -9.0967  -11.4511 H   0  0  0  0  0  0
    1.6330   -9.5693  -10.3898 H   0  0  0  0  0  0
   -0.6186   -6.6206  -10.5235 H   0  0  0  0  0  0
   -1.5304  -10.2091   -7.4804 H   0  0  0  0  0  0
   -2.8411   -9.6735   -2.4458 H   0  0  0  0  0  0
    2.0477  -11.9765   -3.3805 H   0  0  0  0  0  0
    5.4089  -11.2559   -3.6067 H   0  0  0  0  0  0
   -5.3772  -10.0609    3.3170 H   0  0  0  0  0  0
   -3.6052  -10.2105    9.6830 H   0  0  0  0  0  0
  1  2  1  0  0  0
  2  3  1  0  0  0
  3  4  1  0  0  0
  4  5  1  0  0  0
  5  6  1  0  0  0
  5  7  1  0  0  0
  7  8  1  0  0  0
  7 39  1  0  0  0
  8  9  1  0  0  0
  8 27  1  0  0  0
  9 10  1  0  0  0
 10 11  1  0  0  0
 10 12  1  0  0  0
 12 13  1  0  0  0
 13 14  1  0  0  0
 13 26  1  0  0  0
 14 15  1  0  0  0
 15 16  1  0  0  0
 16 17  1  0  0  0
 17 18  1  0  0  0
 18 19  1  0  0  0
 18 25  1  0  0  0
 19 20  1  0  0  0
 20 21  1  0  0  0
 20 24  1  0  0  0
 21 22  1  0  0  0
 21 23  1  0  0  0
 23 51  1  0  0  0
 23 52  1  0  0  0
 24 53  1  0  0  0
 25 54  1  0  0  0
 26 55  1  0  0  0
 27 28  1  0  0  0
 28 29  2  0  0  0
 28 30  1  0  0  0
 30 31  1  0  0  0
 31 32  1  0  0  0
 31 36  1  0  0  0
 32 33  1  0  0  0
 33 34  2  0  0  0
 33 35  1  0  0  0
 35 56  1  0  0  0
 36 37  2  0  0  0
 36 38  1  0  0  0
 38 57  1  0  0  0
 39 40  1  0  0  0
 40 41  2  0  0  0
 40 42  1  0  0  0
 42 43  1  0  0  0
 43 44  1  0  0  0
 43 48  1  0  0  0
 44 45  1  0  0  0
 45 46  2  0  0  0
 45 47  1  0  0  0
 47 58  1  0  0  0
 48 49  2  0  0  0
 48 50  1  0  0  0
 50 59  1  0  0  0
M  END
>  <AUTHOR>
    GENERATED BY OPEN BABEL 2.4.1

>  <CHROM.1>
-80.94105136,65.34307018,89.44981487,166.60326226,-167.30491233,147.10238531
-143.10473832,157.13349065,71.57646105,97.73825294,70.93762910,167.05284009
-59.91681027,58.85103755,168.35437172,73.21702938,-179.96135632,-81.65026672
-56.45661545,142.08337117,-170.37540995,-61.87622232,164.18723415,4.65745329
-163.45790255,58.20071131,-176.24459715,-19.31530418,-97.22799524,7.31733760
-13.58789315,1.48935024,165.34177322,58.91146087,58.70745283,-82.29224210
0.97529242,176.50254484,175.16488947,0.84425095,-9.91605121,-0.22620698,-1.72983150
0.07107895,-1.43466027

>  <COMPND>
    UNNAMED

>  <MASTER>
        0    0    0    0    0    0    0    0  109    0  109    0

>  <Name>
FB1.pdb

>  <RI>
0

>  <Rbt.Current_Directory>
/cluster/tossine/F10/p3/0_clust01/stat

>  <Rbt.Executable>
rbdock/0.1.0

>  <Rbt.Library>
librxdock.so/0.1.0

>  <Rbt.Parameter_File>
/cluster/rxdock/data/scripts/dock.prm

>  <Rbt.Receptor>
rx_3.prm

>  <SCORE>
12.9634

>  <SCORE.INTER>
6.03586

>  <SCORE.INTER.CONST>
1

>  <SCORE.INTER.POLAR>
-1.99399

>  <SCORE.INTER.REPUL>
0.0403779

>  <SCORE.INTER.ROT>
32

>  <SCORE.INTER.VDW>
-24.7865

>  <SCORE.INTER.norm>
0.120717

>  <SCORE.INTRA>
2.77737

>  <SCORE.INTRA.DIHEDRAL>
-2.80799

>  <SCORE.INTRA.DIHEDRAL.0>
47.3121

>  <SCORE.INTRA.POLAR>
1.47808

>  <SCORE.INTRA.POLAR.0>
-1.47808

>  <SCORE.INTRA.REPUL>
0

>  <SCORE.INTRA.REPUL.0>
0

>  <SCORE.INTRA.VDW>
-0.844091

>  <SCORE.INTRA.VDW.0>
-2.78316

>  <SCORE.INTRA.norm>
0.0555475

>  <SCORE.RESTR>
4.15015

>  <SCORE.RESTR.CAVITY>
4.15015

>  <SCORE.RESTR.norm>
0.0830029

>  <SCORE.SYSTEM>
0

>  <SCORE.SYSTEM.CONST>
0

>  <SCORE.SYSTEM.DIHEDRAL>
0

>  <SCORE.SYSTEM.norm>
0

>  <SCORE.heavy>
50

>  <SCORE.norm>
0.259268

$$$$
