FB1.pdb
  RxDock  10072012093D
librxdock.so/0.1.0
 59 58  0  0  0  0  0  0  0  0999 V2000
    2.4957  -14.0466    4.7162 C   0  0  0  0  0  0
    3.4473  -13.1637    3.9123 C   0  0  0  0  0  0
    2.7262  -11.9422    3.3189 C   0  0  0  0  0  0
    1.5849  -12.3142    2.3397 C   0  0  0  0  0  0
    0.5952  -11.1449    2.0024 C   0  0  0  0  0  0
    1.3917  -10.0227    1.2977 C   0  0  0  0  0  0
   -0.6450  -11.5989    1.1228 C   0  0  0  0  0  0
   -1.9086  -10.6149    1.0874 C   0  0  0  0  0  0
   -3.3852  -11.0363    0.6745 C   0  0  0  0  0  0
   -4.1701  -11.9936    1.7648 C   0  0  0  0  0  0
   -3.5196  -13.3759    1.7535 C   0  0  0  0  0  0
   -4.2365  -11.4459    3.2616 C   0  0  0  0  0  0
   -3.2036  -11.8742    4.4314 C   0  0  0  0  0  0
   -1.7797  -12.4524    4.1246 C   0  0  0  0  0  0
   -0.9567  -13.1138    5.3223 C   0  0  0  0  0  0
   -0.1825  -12.2935    6.4280 C   0  0  0  0  0  0
    0.8852  -11.2523    6.0001 C   0  0  0  0  0  0
    0.3716  -10.0192    5.1605 C   0  0  0  0  0  0
   -0.6509   -9.1068    5.8494 C   0  0  0  0  0  0
   -0.7084   -9.1051    7.4034 C   0  0  0  0  0  0
   -1.4870   -7.9920    8.1652 C   0  0  0  0  0  0
   -2.9933   -8.1779    8.2822 C   0  0  0  0  0  0
   -0.8827   -7.7387    9.4870 N   0  0  0  0  0  0
   -1.3864  -10.3402    7.7475 O   0  0  0  0  0  0
    1.5088   -9.2312    4.7921 O   0  0  0  0  0  0
   -2.9662  -10.6670    5.1750 O   0  0  0  0  0  0
   -2.0488  -10.0850    2.4335 O   0  0  0  0  0  0
   -1.9673   -8.7367    2.5772 C   0  0  0  0  0  0
   -1.3406   -8.1409    3.4326 O   0  0  0  0  0  0
   -2.7028   -8.0910    1.4354 C   0  0  0  0  0  0
   -3.9504   -7.3209    1.8969 C   0  0  0  0  0  0
   -3.7461   -6.6255    3.2490 C   0  0  0  0  0  0
   -3.7834   -7.6211    4.3851 C   0  0  0  0  0  0
   -4.2619   -8.7458    4.2860 O   0  0  0  0  0  0
   -3.2390   -7.1575    5.5199 O   0  0  0  0  0  0
   -4.2294   -6.2775    0.8064 C   0  0  0  0  0  0
   -3.4467   -6.0336   -0.0993 O   0  0  0  0  0  0
   -5.3855   -5.6165    0.9562 O   0  0  0  0  0  0
   -0.2169  -12.0006   -0.2393 O   0  0  0  0  0  0
    0.2275  -11.0172   -1.1073 C   0  0  0  0  0  0
   -0.2829   -9.9110   -1.2264 O   0  0  0  0  0  0
    1.4497  -11.4646   -1.9199 C   0  0  0  0  0  0
    2.1871  -10.3389   -2.7096 C   0  0  0  0  0  0
    3.7043  -10.4834   -2.9280 C   0  0  0  0  0  0
    4.4529  -10.7860   -1.6622 C   0  0  0  0  0  0
    5.0859   -9.9777   -0.9970 O   0  0  0  0  0  0
    4.3469  -12.0732   -1.2985 O   0  0  0  0  0  0
    1.5639  -10.0009   -4.0696 C   0  0  0  0  0  0
    0.7774  -10.7340   -4.6360 O   0  0  0  0  0  0
    1.8626   -8.7780   -4.5560 O   0  0  0  0  0  0
   -1.3421   -6.9368    9.9162 H   0  0  0  0  0  0
    0.0874   -7.4453    9.3518 H   0  0  0  0  0  0
   -2.1626  -10.3705    7.1493 H   0  0  0  0  0  0
    1.9471   -9.6644    4.0367 H   0  0  0  0  0  0
   -3.8132  -10.1996    5.2680 H   0  0  0  0  0  0
   -2.7157   -6.3384    5.4266 H   0  0  0  0  0  0
   -5.5997   -4.9926    0.2189 H   0  0  0  0  0  0
    4.7447  -12.1468   -0.4054 H   0  0  0  0  0  0
    1.3457   -8.5026   -5.3454 H   0  0  0  0  0  0
  1  2  1  0  0  0
  2  3  1  0  0  0
  3  4  1  0  0  0
  4  5  1  0  0  0
  5  6  1  0  0  0
  5  7  1  0  0  0
  7  8  1  0  0  0
  7 39  1  0  0  0
  8  9  1  0  0  0
  8 27  1  0  0  0
  9 10  1  0  0  0
 10 11  1  0  0  0
 10 12  1  0  0  0
 12 13  1  0  0  0
 13 14  1  0  0  0
 13 26  1  0  0  0
 14 15  1  0  0  0
 15 16  1  0  0  0
 16 17  1  0  0  0
 17 18  1  0  0  0
 18 19  1  0  0  0
 18 25  1  0  0  0
 19 20  1  0  0  0
 20 21  1  0  0  0
 20 24  1  0  0  0
 21 22  1  0  0  0
 21 23  1  0  0  0
 23 51  1  0  0  0
 23 52  1  0  0  0
 24 53  1  0  0  0
 25 54  1  0  0  0
 26 55  1  0  0  0
 27 28  1  0  0  0
 28 29  2  0  0  0
 28 30  1  0  0  0
 30 31  1  0  0  0
 31 32  1  0  0  0
 31 36  1  0  0  0
 32 33  1  0  0  0
 33 34  2  0  0  0
 33 35  1  0  0  0
 35 56  1  0  0  0
 36 37  2  0  0  0
 36 38  1  0  0  0
 38 57  1  0  0  0
 39 40  1  0  0  0
 40 41  2  0  0  0
 40 42  1  0  0  0
 42 43  1  0  0  0
 43 44  1  0  0  0
 43 48  1  0  0  0
 44 45  1  0  0  0
 45 46  2  0  0  0
 45 47  1  0  0  0
 47 58  1  0  0  0
 48 49  2  0  0  0
 48 50  1  0  0  0
 50 59  1  0  0  0
M  END
>  <AUTHOR>
    GENERATED BY OPEN BABEL 2.4.1

>  <CHROM.1>
-61.01299464,164.92944642,62.44607836,162.48572249,-159.93772564,-70.16407169
71.11598430,120.41698975,-70.38100436,-96.21429313,21.82206292,-167.88916847
40.97066724,-78.08847706,-55.50897417,63.55773942,61.59322580,22.57203184
78.67287016,166.44756101,81.58522124,-46.51722897,173.50469397,-135.41239268
114.18450167,36.31430709,-75.01431439,-10.24543095,-18.11677295,-13.18654859
-175.62626953,-40.93691562,-168.36492269,149.25637812,-50.21627669,-16.76228891
-101.01575420,-171.61135229,-169.98914671,-0.69580308,-10.05252248,2.40043858
-0.96533325,-0.58619421,1.74029921

>  <COMPND>
    UNNAMED

>  <MASTER>
        0    0    0    0    0    0    0    0  109    0  109    0

>  <Name>
FB1.pdb

>  <RI>
0

>  <Rbt.Current_Directory>
/cluster/tossine/F10/p3/0_clust01/stat

>  <Rbt.Executable>
rbdock/0.1.0

>  <Rbt.Library>
librxdock.so/0.1.0

>  <Rbt.Parameter_File>
/cluster/rxdock/data/scripts/dock.prm

>  <Rbt.Receptor>
rx_3.prm

>  <SCORE>
44.3701

>  <SCORE.INTER>
15.8551

>  <SCORE.INTER.CONST>
1

>  <SCORE.INTER.POLAR>
-1.04644

>  <SCORE.INTER.REPUL>
0.546802

>  <SCORE.INTER.ROT>
32

>  <SCORE.INTER.VDW>
-20.721

>  <SCORE.INTER.norm>
0.317103

>  <SCORE.INTRA>
18.4343

>  <SCORE.INTRA.DIHEDRAL>
23.4718

>  <SCORE.INTRA.DIHEDRAL.0>
47.3121

>  <SCORE.INTRA.POLAR>
0.0388974

>  <SCORE.INTRA.POLAR.0>
-1.47808

>  <SCORE.INTRA.REPUL>
0

>  <SCORE.INTRA.REPUL.0>
0

>  <SCORE.INTRA.VDW>
6.56614

>  <SCORE.INTRA.VDW.0>
-2.78316

>  <SCORE.INTRA.norm>
0.368686

>  <SCORE.RESTR>
10.0807

>  <SCORE.RESTR.CAVITY>
10.0807

>  <SCORE.RESTR.norm>
0.201614

>  <SCORE.SYSTEM>
0

>  <SCORE.SYSTEM.CONST>
0

>  <SCORE.SYSTEM.DIHEDRAL>
0

>  <SCORE.SYSTEM.norm>
0

>  <SCORE.heavy>
50

>  <SCORE.norm>
0.887403

$$$$
