FB1.pdb
  RxDock  10072012083D
librxdock.so/0.1.0
 59 58  0  0  0  0  0  0  0  0999 V2000
   -4.8545  -11.6212    6.0481 C   0  0  0  0  0  0
   -3.6553  -12.5116    6.3650 C   0  0  0  0  0  0
   -2.4700  -12.2251    5.4284 C   0  0  0  0  0  0
   -1.2853  -13.2058    5.6137 C   0  0  0  0  0  0
   -0.1214  -13.0410    4.5752 C   0  0  0  0  0  0
   -0.7131  -13.1918    3.1547 C   0  0  0  0  0  0
    0.6666  -11.6713    4.7193 C   0  0  0  0  0  0
    1.7151  -11.3122    3.5626 C   0  0  0  0  0  0
    1.4314  -10.3336    2.3419 C   0  0  0  0  0  0
   -0.0806  -10.4462    1.6920 C   0  0  0  0  0  0
   -0.9886   -9.4412    2.3989 C   0  0  0  0  0  0
   -0.1843  -10.2424    0.1132 C   0  0  0  0  0  0
    0.6558  -11.1024   -0.9700 C   0  0  0  0  0  0
    0.5528  -10.8417   -2.5119 C   0  0  0  0  0  0
   -0.8251  -11.1756   -3.2461 C   0  0  0  0  0  0
   -1.5970  -10.1694   -4.1875 C   0  0  0  0  0  0
   -2.0230  -10.6251   -5.6082 C   0  0  0  0  0  0
   -2.8164   -9.5747   -6.4778 C   0  0  0  0  0  0
   -2.2606   -8.1452   -6.4907 C   0  0  0  0  0  0
   -2.9692   -7.0707   -5.6180 C   0  0  0  0  0  0
   -4.2238   -6.3186   -6.1525 C   0  0  0  0  0  0
   -5.4173   -7.1810   -6.5389 C   0  0  0  0  0  0
   -4.6275   -5.2447   -5.2251 N   0  0  0  0  0  0
   -3.4345   -7.7941   -4.4501 O   0  0  0  0  0  0
   -2.8587  -10.0583   -7.8247 O   0  0  0  0  0  0
    2.0349  -10.8654   -0.6407 O   0  0  0  0  0  0
    2.8706  -10.7328    4.2272 O   0  0  0  0  0  0
    4.0677  -10.8480    3.5954 C   0  0  0  0  0  0
    4.2727  -10.6862    2.4075 O   0  0  0  0  0  0
    5.1278  -11.1116    4.6289 C   0  0  0  0  0  0
    6.0466   -9.9002    4.8543 C   0  0  0  0  0  0
    6.1415   -9.5003    6.3323 C   0  0  0  0  0  0
    5.1347   -8.4259    6.6721 C   0  0  0  0  0  0
    5.2476   -7.6692    7.6304 O   0  0  0  0  0  0
    4.0994   -8.3754    5.8209 O   0  0  0  0  0  0
    7.4290  -10.3164    4.3330 C   0  0  0  0  0  0
    8.1023  -11.1924    4.8541 O   0  0  0  0  0  0
    7.8619   -9.6037    3.2839 O   0  0  0  0  0  0
   -0.2603  -10.5469    4.9958 O   0  0  0  0  0  0
    0.2628   -9.3736    5.5134 C   0  0  0  0  0  0
    1.3978   -8.9655    5.3046 O   0  0  0  0  0  0
   -0.7461   -8.6224    6.3922 C   0  0  0  0  0  0
   -2.2198   -9.1293    6.3164 C   0  0  0  0  0  0
   -3.0606   -9.1042    7.6059 C   0  0  0  0  0  0
   -2.3458   -8.4623    8.7598 C   0  0  0  0  0  0
   -2.0111   -7.2876    8.8276 O   0  0  0  0  0  0
   -2.1124   -9.3235    9.7620 O   0  0  0  0  0  0
   -3.0625   -8.4771    5.2134 C   0  0  0  0  0  0
   -3.3531   -9.0470    4.1803 O   0  0  0  0  0  0
   -3.5572   -7.2564    5.5077 O   0  0  0  0  0  0
   -5.3617   -4.6869   -5.6591 H   0  0  0  0  0  0
   -3.8416   -4.6011   -5.1086 H   0  0  0  0  0  0
   -3.9878   -7.1473   -3.9635 H   0  0  0  0  0  0
   -1.9484  -10.0660   -8.1739 H   0  0  0  0  0  0
    2.2257   -9.9263   -0.8029 H   0  0  0  0  0  0
    3.7900   -9.2402    5.4894 H   0  0  0  0  0  0
    8.7193   -9.9162    2.9017 H   0  0  0  0  0  0
   -2.0121  -10.2094    9.3541 H   0  0  0  0  0  0
   -3.8220   -6.7129    4.7326 H   0  0  0  0  0  0
  1  2  1  0  0  0
  2  3  1  0  0  0
  3  4  1  0  0  0
  4  5  1  0  0  0
  5  6  1  0  0  0
  5  7  1  0  0  0
  7  8  1  0  0  0
  7 39  1  0  0  0
  8  9  1  0  0  0
  8 27  1  0  0  0
  9 10  1  0  0  0
 10 11  1  0  0  0
 10 12  1  0  0  0
 12 13  1  0  0  0
 13 14  1  0  0  0
 13 26  1  0  0  0
 14 15  1  0  0  0
 15 16  1  0  0  0
 16 17  1  0  0  0
 17 18  1  0  0  0
 18 19  1  0  0  0
 18 25  1  0  0  0
 19 20  1  0  0  0
 20 21  1  0  0  0
 20 24  1  0  0  0
 21 22  1  0  0  0
 21 23  1  0  0  0
 23 51  1  0  0  0
 23 52  1  0  0  0
 24 53  1  0  0  0
 25 54  1  0  0  0
 26 55  1  0  0  0
 27 28  1  0  0  0
 28 29  2  0  0  0
 28 30  1  0  0  0
 30 31  1  0  0  0
 31 32  1  0  0  0
 31 36  1  0  0  0
 32 33  1  0  0  0
 33 34  2  0  0  0
 33 35  1  0  0  0
 35 56  1  0  0  0
 36 37  2  0  0  0
 36 38  1  0  0  0
 38 57  1  0  0  0
 39 40  1  0  0  0
 40 41  2  0  0  0
 40 42  1  0  0  0
 42 43  1  0  0  0
 43 44  1  0  0  0
 43 48  1  0  0  0
 44 45  1  0  0  0
 45 46  2  0  0  0
 45 47  1  0  0  0
 47 58  1  0  0  0
 48 49  2  0  0  0
 48 50  1  0  0  0
 50 59  1  0  0  0
M  END
>  <AUTHOR>
    GENERATED BY OPEN BABEL 2.4.1

>  <CHROM.1>
-173.88110426,173.84268163,-56.64359503,-170.61443120,98.85901440,162.20595474
-39.10189896,153.65844528,91.40391995,55.30461760,-178.25737406,-67.58747876
-65.61751033,128.96218920,127.92704389,178.76075039,45.34131840,-102.42132797
-65.58121011,-83.95760010,58.51600140,-172.27448600,171.96511450,42.68092298
-107.96417093,126.96007844,-93.77173026,-66.34622534,-157.90012397,36.72272747
-175.40554156,29.55484684,-11.87127777,143.93278721,5.09161898,104.69142691
65.06781390,29.93640662,159.89103660,0.09415827,-9.75419147,2.32378774,1.14916984
-0.12402453,1.62211217

>  <COMPND>
    UNNAMED

>  <MASTER>
        0    0    0    0    0    0    0    0  109    0  109    0

>  <Name>
FB1.pdb

>  <RI>
0

>  <Rbt.Current_Directory>
/cluster/tossine/F10/p3/0_clust01/stat

>  <Rbt.Executable>
rbdock/0.1.0

>  <Rbt.Library>
librxdock.so/0.1.0

>  <Rbt.Parameter_File>
/cluster/rxdock/data/scripts/dock.prm

>  <Rbt.Receptor>
rx_3.prm

>  <SCORE>
50.2167

>  <SCORE.INTER>
13.0077

>  <SCORE.INTER.CONST>
1

>  <SCORE.INTER.POLAR>
-0.747942

>  <SCORE.INTER.REPUL>
0.421446

>  <SCORE.INTER.ROT>
32

>  <SCORE.INTER.VDW>
-23.9566

>  <SCORE.INTER.norm>
0.260153

>  <SCORE.INTRA>
28.9813

>  <SCORE.INTRA.DIHEDRAL>
51.8093

>  <SCORE.INTRA.DIHEDRAL.0>
47.3121

>  <SCORE.INTRA.POLAR>
0.345503

>  <SCORE.INTRA.POLAR.0>
-1.47808

>  <SCORE.INTRA.REPUL>
0.171994

>  <SCORE.INTRA.REPUL.0>
0

>  <SCORE.INTRA.VDW>
1.04199

>  <SCORE.INTRA.VDW.0>
-2.78316

>  <SCORE.INTRA.norm>
0.579626

>  <SCORE.RESTR>
8.22768

>  <SCORE.RESTR.CAVITY>
8.22768

>  <SCORE.RESTR.norm>
0.164554

>  <SCORE.SYSTEM>
0

>  <SCORE.SYSTEM.CONST>
0

>  <SCORE.SYSTEM.DIHEDRAL>
0

>  <SCORE.SYSTEM.norm>
0

>  <SCORE.heavy>
50

>  <SCORE.norm>
1.00433

$$$$
