FB1.pdb
  RxDock  10072011573D
librxdock.so/0.1.0
 59 58  0  0  0  0  0  0  0  0999 V2000
    2.2182  -15.2613    6.5336 C   0  0  0  0  0  0
    1.0356  -15.8941    5.8041 C   0  0  0  0  0  0
    0.3961  -14.9184    4.8025 C   0  0  0  0  0  0
   -0.4492  -13.8083    5.4755 C   0  0  0  0  0  0
   -1.8443  -13.5435    4.8091 C   0  0  0  0  0  0
   -2.8170  -14.6575    5.2600 C   0  0  0  0  0  0
   -2.4375  -12.1075    5.1313 C   0  0  0  0  0  0
   -1.9577  -10.8978    4.1972 C   0  0  0  0  0  0
   -2.9078   -9.7733    3.5962 C   0  0  0  0  0  0
   -2.1308   -8.5433    2.8187 C   0  0  0  0  0  0
   -2.0516   -8.8830    1.3313 C   0  0  0  0  0  0
   -2.7580   -7.0881    3.0023 C   0  0  0  0  0  0
   -4.1617   -6.6158    2.3501 C   0  0  0  0  0  0
   -4.3502   -6.4308    0.8054 C   0  0  0  0  0  0
   -5.6798   -5.7163    0.2849 C   0  0  0  0  0  0
   -6.0096   -5.4530   -1.2371 C   0  0  0  0  0  0
   -5.4136   -4.2072   -1.9443 C   0  0  0  0  0  0
   -5.5314   -4.1648   -3.5170 C   0  0  0  0  0  0
   -4.5663   -5.0678   -4.2952 C   0  0  0  0  0  0
   -4.6504   -6.6042   -4.0700 C   0  0  0  0  0  0
   -3.9086   -7.5857   -5.0248 C   0  0  0  0  0  0
   -4.3635   -9.0381   -4.9902 C   0  0  0  0  0  0
   -3.8995   -7.0687   -6.4064 N   0  0  0  0  0  0
   -4.0471   -6.8184   -2.7685 O   0  0  0  0  0  0
   -6.8724   -4.5219   -3.8692 O   0  0  0  0  0  0
   -5.1042   -7.6349    2.7238 O   0  0  0  0  0  0
   -0.9677  -10.1601    4.9641 O   0  0  0  0  0  0
    0.2428   -9.9623    4.3802 C   0  0  0  0  0  0
    0.9169   -8.9521    4.4462 O   0  0  0  0  0  0
    0.6657  -11.2433    3.7156 C   0  0  0  0  0  0
    2.1739  -11.5076    3.8490 C   0  0  0  0  0  0
    3.0237  -10.3256    3.3651 C   0  0  0  0  0  0
    4.4256  -10.3971    3.9244 C   0  0  0  0  0  0
    4.6964  -10.1979    5.1038 O   0  0  0  0  0  0
    5.3529  -10.7024    3.0048 O   0  0  0  0  0  0
    2.4275  -11.7606    5.3416 C   0  0  0  0  0  0
    3.0350  -12.7347    5.7591 O   0  0  0  0  0  0
    1.8833  -10.8474    6.1576 O   0  0  0  0  0  0
   -3.9142  -12.1552    5.2617 O   0  0  0  0  0  0
   -4.5853  -10.9877    5.5853 C   0  0  0  0  0  0
   -5.4263  -10.4489    4.8777 O   0  0  0  0  0  0
   -4.1590  -10.4281    6.9490 C   0  0  0  0  0  0
   -2.6326  -10.5012    7.2639 C   0  0  0  0  0  0
   -1.8381   -9.1830    7.3028 C   0  0  0  0  0  0
   -2.7165   -7.9723    7.4335 C   0  0  0  0  0  0
   -3.0840   -7.4676    8.4855 O   0  0  0  0  0  0
   -3.0632   -7.4590    6.2433 O   0  0  0  0  0  0
   -2.2809  -11.2797    8.5378 C   0  0  0  0  0  0
   -2.7105  -10.9802    9.6343 O   0  0  0  0  0  0
   -1.5424  -12.3936    8.3507 O   0  0  0  0  0  0
   -4.0287   -7.8447   -7.0543 H   0  0  0  0  0  0
   -2.9664   -6.7055   -6.6132 H   0  0  0  0  0  0
   -4.1483   -7.7799   -2.6049 H   0  0  0  0  0  0
   -7.0045   -5.4624   -3.6490 H   0  0  0  0  0  0
   -4.8110   -8.4742    2.3313 H   0  0  0  0  0  0
    5.0527  -10.6501    2.0771 H   0  0  0  0  0  0
    2.0276  -11.0204    7.1209 H   0  0  0  0  0  0
   -3.0109   -6.4839    6.3315 H   0  0  0  0  0  0
   -1.3360  -12.9021    9.1662 H   0  0  0  0  0  0
  1  2  1  0  0  0
  2  3  1  0  0  0
  3  4  1  0  0  0
  4  5  1  0  0  0
  5  6  1  0  0  0
  5  7  1  0  0  0
  7  8  1  0  0  0
  7 39  1  0  0  0
  8  9  1  0  0  0
  8 27  1  0  0  0
  9 10  1  0  0  0
 10 11  1  0  0  0
 10 12  1  0  0  0
 12 13  1  0  0  0
 13 14  1  0  0  0
 13 26  1  0  0  0
 14 15  1  0  0  0
 15 16  1  0  0  0
 16 17  1  0  0  0
 17 18  1  0  0  0
 18 19  1  0  0  0
 18 25  1  0  0  0
 19 20  1  0  0  0
 20 21  1  0  0  0
 20 24  1  0  0  0
 21 22  1  0  0  0
 21 23  1  0  0  0
 23 51  1  0  0  0
 23 52  1  0  0  0
 24 53  1  0  0  0
 25 54  1  0  0  0
 26 55  1  0  0  0
 27 28  1  0  0  0
 28 29  2  0  0  0
 28 30  1  0  0  0
 30 31  1  0  0  0
 31 32  1  0  0  0
 31 36  1  0  0  0
 32 33  1  0  0  0
 33 34  2  0  0  0
 33 35  1  0  0  0
 35 56  1  0  0  0
 36 37  2  0  0  0
 36 38  1  0  0  0
 38 57  1  0  0  0
 39 40  1  0  0  0
 40 41  2  0  0  0
 40 42  1  0  0  0
 42 43  1  0  0  0
 43 44  1  0  0  0
 43 48  1  0  0  0
 44 45  1  0  0  0
 45 46  2  0  0  0
 45 47  1  0  0  0
 47 58  1  0  0  0
 48 49  2  0  0  0
 48 50  1  0  0  0
 50 59  1  0  0  0
M  END
>  <AUTHOR>
    GENERATED BY OPEN BABEL 2.4.1

>  <CHROM.1>
-74.36724070,-134.76653161,78.01599608,84.95005133,136.16750705,177.97667259
172.90125436,125.81282678,93.01245128,-70.48935808,-68.23323700,-169.21375915
-62.06591399,179.73648138,-82.87300051,167.66063566,-75.71772503,61.47556517
-68.08768367,167.71235190,-162.56952299,176.77923073,-141.67020301,141.10206613
-142.03590954,-53.38689001,160.57114096,128.79329532,-70.80289082,12.64126079
178.63050895,118.78668229,40.70527622,110.16205562,17.24650562,-58.30731503
89.39265329,-139.07418826,-178.64237535,-1.88335080,-9.63702503,3.20865644
-1.06219854,0.45830938,-1.23051513

>  <COMPND>
    UNNAMED

>  <MASTER>
        0    0    0    0    0    0    0    0  109    0  109    0

>  <Name>
FB1.pdb

>  <RI>
0

>  <Rbt.Current_Directory>
/cluster/tossine/F10/p3/0_clust01/stat

>  <Rbt.Executable>
rbdock/0.1.0

>  <Rbt.Library>
librxdock.so/0.1.0

>  <Rbt.Parameter_File>
/cluster/rxdock/data/scripts/dock.prm

>  <Rbt.Receptor>
rx_3.prm

>  <SCORE>
56.7115

>  <SCORE.INTER>
11.0072

>  <SCORE.INTER.CONST>
1

>  <SCORE.INTER.POLAR>
-2.32584

>  <SCORE.INTER.REPUL>
0.465452

>  <SCORE.INTER.ROT>
32

>  <SCORE.INTER.VDW>
-20.8122

>  <SCORE.INTER.norm>
0.220145

>  <SCORE.INTRA>
34.8883

>  <SCORE.INTRA.DIHEDRAL>
47.4971

>  <SCORE.INTRA.DIHEDRAL.0>
47.3121

>  <SCORE.INTRA.POLAR>
1.47808

>  <SCORE.INTRA.POLAR.0>
-1.47808

>  <SCORE.INTRA.REPUL>
0

>  <SCORE.INTRA.REPUL.0>
0

>  <SCORE.INTRA.VDW>
6.11425

>  <SCORE.INTRA.VDW.0>
-2.78316

>  <SCORE.INTRA.norm>
0.697765

>  <SCORE.RESTR>
10.816

>  <SCORE.RESTR.CAVITY>
10.816

>  <SCORE.RESTR.norm>
0.21632

>  <SCORE.SYSTEM>
0

>  <SCORE.SYSTEM.CONST>
0

>  <SCORE.SYSTEM.DIHEDRAL>
0

>  <SCORE.SYSTEM.norm>
0

>  <SCORE.heavy>
50

>  <SCORE.norm>
1.13423

$$$$
