FB1.pdb
  RxDock  10072012093D
librxdock.so/0.1.0
 59 58  0  0  0  0  0  0  0  0999 V2000
   -3.1238   -7.5447    5.4348 C   0  0  0  0  0  0
   -2.9430   -9.0366    5.1649 C   0  0  0  0  0  0
   -3.8598   -9.5254    4.0314 C   0  0  0  0  0  0
   -3.4220  -10.8818    3.4245 C   0  0  0  0  0  0
   -2.0049  -10.8791    2.7522 C   0  0  0  0  0  0
   -1.6822   -9.4345    2.3052 C   0  0  0  0  0  0
   -0.8589  -11.4529    3.6878 C   0  0  0  0  0  0
    0.6519  -11.1205    3.2720 C   0  0  0  0  0  0
    1.0901  -10.3641    1.9438 C   0  0  0  0  0  0
    1.4029  -11.3421    0.6527 C   0  0  0  0  0  0
    0.1081  -12.0483    0.2542 C   0  0  0  0  0  0
    2.0420  -10.6349   -0.6265 C   0  0  0  0  0  0
    1.5581  -10.9014   -2.1475 C   0  0  0  0  0  0
    0.0914  -10.6219   -2.6237 C   0  0  0  0  0  0
   -0.2136  -10.6456   -4.1907 C   0  0  0  0  0  0
   -1.6557  -10.4988   -4.8177 C   0  0  0  0  0  0
   -1.8176  -10.4503   -6.3601 C   0  0  0  0  0  0
   -1.6615   -9.0360   -7.0418 C   0  0  0  0  0  0
   -2.5113   -7.9017   -6.4555 C   0  0  0  0  0  0
   -3.8357   -7.5236   -7.1775 C   0  0  0  0  0  0
   -4.5126   -6.1452   -6.9185 C   0  0  0  0  0  0
   -5.9451   -5.9908   -7.4100 C   0  0  0  0  0  0
   -4.3981   -5.7620   -5.4985 N   0  0  0  0  0  0
   -3.4964   -7.5163   -8.5877 O   0  0  0  0  0  0
   -0.2828   -8.6581   -6.9643 O   0  0  0  0  0  0
    2.3841  -10.0445   -2.9536 O   0  0  0  0  0  0
    1.1997  -10.3086    4.3458 O   0  0  0  0  0  0
    2.4012  -10.6872    4.8542 C   0  0  0  0  0  0
    2.8642  -10.3559    5.9290 O   0  0  0  0  0  0
    3.0290  -11.6730    3.9079 C   0  0  0  0  0  0
    4.2226  -11.0792    3.1430 C   0  0  0  0  0  0
    3.8241   -9.8869    2.2639 C   0  0  0  0  0  0
    4.9895   -9.4133    1.4268 C   0  0  0  0  0  0
    5.1359   -9.7006    0.2436 O   0  0  0  0  0  0
    5.8545   -8.6424    2.1024 O   0  0  0  0  0  0
    5.2279  -10.6305    4.2126 C   0  0  0  0  0  0
    5.4079   -9.4591    4.5091 O   0  0  0  0  0  0
    5.9319  -11.6289    4.7636 O   0  0  0  0  0  0
   -1.1236  -11.1384    5.1129 O   0  0  0  0  0  0
   -0.5238  -11.9234    6.0835 C   0  0  0  0  0  0
    0.5251  -12.5363    5.9332 O   0  0  0  0  0  0
   -1.3238  -11.9461    7.3926 C   0  0  0  0  0  0
   -2.3185  -10.7618    7.5992 C   0  0  0  0  0  0
   -3.8017  -11.0967    7.8411 C   0  0  0  0  0  0
   -4.4344  -11.8230    6.6893 C   0  0  0  0  0  0
   -3.8426  -12.2727    5.7176 O   0  0  0  0  0  0
   -5.7614  -11.9579    6.8343 O   0  0  0  0  0  0
   -1.8989   -9.7577    8.6800 C   0  0  0  0  0  0
   -2.3426   -9.7811    9.8110 O   0  0  0  0  0  0
   -0.9167   -8.9025    8.3262 O   0  0  0  0  0  0
   -5.1464   -5.1101   -5.2670 H   0  0  0  0  0  0
   -3.5353   -5.2281   -5.3727 H   0  0  0  0  0  0
   -2.9713   -6.6975   -8.7108 H   0  0  0  0  0  0
   -0.1026   -8.3491   -6.0574 H   0  0  0  0  0  0
    3.1547  -10.5589   -3.2472 H   0  0  0  0  0  0
    5.6605   -8.5332    3.0532 H   0  0  0  0  0  0
    6.6814  -11.3339    5.3380 H   0  0  0  0  0  0
   -6.1414  -11.9890    5.9310 H   0  0  0  0  0  0
   -0.6363   -8.9514    7.3854 H   0  0  0  0  0  0
  1  2  1  0  0  0
  2  3  1  0  0  0
  3  4  1  0  0  0
  4  5  1  0  0  0
  5  6  1  0  0  0
  5  7  1  0  0  0
  7  8  1  0  0  0
  7 39  1  0  0  0
  8  9  1  0  0  0
  8 27  1  0  0  0
  9 10  1  0  0  0
 10 11  1  0  0  0
 10 12  1  0  0  0
 12 13  1  0  0  0
 13 14  1  0  0  0
 13 26  1  0  0  0
 14 15  1  0  0  0
 15 16  1  0  0  0
 16 17  1  0  0  0
 17 18  1  0  0  0
 18 19  1  0  0  0
 18 25  1  0  0  0
 19 20  1  0  0  0
 20 21  1  0  0  0
 20 24  1  0  0  0
 21 22  1  0  0  0
 21 23  1  0  0  0
 23 51  1  0  0  0
 23 52  1  0  0  0
 24 53  1  0  0  0
 25 54  1  0  0  0
 26 55  1  0  0  0
 27 28  1  0  0  0
 28 29  2  0  0  0
 28 30  1  0  0  0
 30 31  1  0  0  0
 31 32  1  0  0  0
 31 36  1  0  0  0
 32 33  1  0  0  0
 33 34  2  0  0  0
 33 35  1  0  0  0
 35 56  1  0  0  0
 36 37  2  0  0  0
 36 38  1  0  0  0
 38 57  1  0  0  0
 39 40  1  0  0  0
 40 41  2  0  0  0
 40 42  1  0  0  0
 42 43  1  0  0  0
 43 44  1  0  0  0
 43 48  1  0  0  0
 44 45  1  0  0  0
 45 46  2  0  0  0
 45 47  1  0  0  0
 47 58  1  0  0  0
 48 49  2  0  0  0
 48 50  1  0  0  0
 50 59  1  0  0  0
M  END
>  <AUTHOR>
    GENERATED BY OPEN BABEL 2.4.1

>  <CHROM.1>
162.09199410,-61.92643204,-25.29574697,-163.29862665,-5.05083867,157.76421128
-91.15800872,130.21193198,64.46342348,-135.42929964,59.67694273,168.33063009
93.39771559,174.88225000,176.27960799,-85.88660195,-51.68642112,-99.05668900
-77.48443867,-161.24013454,-166.45175882,-73.96477863,-155.98871723,-161.16730819
108.05366796,-61.65641956,-174.50633385,-105.41031998,100.39966878,3.92261143
170.22669343,26.41955139,-20.82093793,123.21067647,-61.83092527,-98.70335157
8.93597798,151.20548368,5.94644840,-0.31527057,-10.03502315,1.59993575,1.41858878
-0.11107477,1.74954350

>  <COMPND>
    UNNAMED

>  <MASTER>
        0    0    0    0    0    0    0    0  109    0  109    0

>  <Name>
FB1.pdb

>  <RI>
0

>  <Rbt.Current_Directory>
/cluster/tossine/F10/p3/0_clust01/stat

>  <Rbt.Executable>
rbdock/0.1.0

>  <Rbt.Library>
librxdock.so/0.1.0

>  <Rbt.Parameter_File>
/cluster/rxdock/data/scripts/dock.prm

>  <Rbt.Receptor>
rx_3.prm

>  <SCORE>
47.1469

>  <SCORE.INTER>
8.96752

>  <SCORE.INTER.CONST>
1

>  <SCORE.INTER.POLAR>
-1.53498

>  <SCORE.INTER.REPUL>
0.0500579

>  <SCORE.INTER.ROT>
32

>  <SCORE.INTER.VDW>
-23.4638

>  <SCORE.INTER.norm>
0.17935

>  <SCORE.INTRA>
35.1759

>  <SCORE.INTRA.DIHEDRAL>
27.472

>  <SCORE.INTRA.DIHEDRAL.0>
47.3121

>  <SCORE.INTRA.POLAR>
1.22487

>  <SCORE.INTRA.POLAR.0>
-1.47808

>  <SCORE.INTRA.REPUL>
0

>  <SCORE.INTRA.REPUL.0>
0

>  <SCORE.INTRA.VDW>
17.2754

>  <SCORE.INTRA.VDW.0>
-2.78316

>  <SCORE.INTRA.norm>
0.703519

>  <SCORE.RESTR>
3.00348

>  <SCORE.RESTR.CAVITY>
3.00348

>  <SCORE.RESTR.norm>
0.0600697

>  <SCORE.SYSTEM>
0

>  <SCORE.SYSTEM.CONST>
0

>  <SCORE.SYSTEM.DIHEDRAL>
0

>  <SCORE.SYSTEM.norm>
0

>  <SCORE.heavy>
50

>  <SCORE.norm>
0.942939

$$$$
