FB1.pdb
  RxDock  10072012103D
librxdock.so/0.1.0
 59 58  0  0  0  0  0  0  0  0999 V2000
    0.3748  -16.2019    5.5174 C   0  0  0  0  0  0
    0.4845  -14.7739    4.9881 C   0  0  0  0  0  0
    1.5679  -13.9735    5.7296 C   0  0  0  0  0  0
    1.7464  -12.5314    5.1927 C   0  0  0  0  0  0
    0.4179  -11.8154    4.7653 C   0  0  0  0  0  0
    0.1208  -10.6933    5.7866 C   0  0  0  0  0  0
    0.4554  -11.2414    3.2864 C   0  0  0  0  0  0
   -0.8275  -10.4174    2.7950 C   0  0  0  0  0  0
   -1.6219  -10.6816    1.4433 C   0  0  0  0  0  0
   -0.6903  -10.7316    0.0828 C   0  0  0  0  0  0
   -1.1954   -9.6676   -0.8904 C   0  0  0  0  0  0
    0.8804  -10.5561    0.2993 C   0  0  0  0  0  0
    2.0023  -11.0347   -0.7641 C   0  0  0  0  0  0
    2.0662  -10.4756   -2.2268 C   0  0  0  0  0  0
    1.3535  -11.3084   -3.3877 C   0  0  0  0  0  0
   -0.2101  -11.3800   -3.5986 C   0  0  0  0  0  0
   -0.9741  -10.1211   -4.0874 C   0  0  0  0  0  0
   -1.0789   -9.9214   -5.6489 C   0  0  0  0  0  0
   -1.3013   -8.4843   -6.1366 C   0  0  0  0  0  0
   -2.6439   -7.7846   -5.7817 C   0  0  0  0  0  0
   -3.9228   -8.0496   -6.6301 C   0  0  0  0  0  0
   -4.5327   -9.4400   -6.5202 C   0  0  0  0  0  0
   -4.9388   -7.0075   -6.3886 N   0  0  0  0  0  0
   -2.9689   -8.2655   -4.4524 O   0  0  0  0  0  0
    0.1256  -10.4210   -6.2399 O   0  0  0  0  0  0
    3.2576  -10.6680   -0.1671 O   0  0  0  0  0  0
   -1.8300  -10.5671    3.8367 O   0  0  0  0  0  0
   -2.7093   -9.5444    3.9981 C   0  0  0  0  0  0
   -2.9480   -8.6666    3.1906 O   0  0  0  0  0  0
   -3.4216   -9.7315    5.3093 C   0  0  0  0  0  0
   -3.2706   -8.5187    6.2414 C   0  0  0  0  0  0
   -3.7076   -8.8239    7.6799 C   0  0  0  0  0  0
   -3.4979  -10.2822    8.0155 C   0  0  0  0  0  0
   -2.5041  -10.7092    8.5931 O   0  0  0  0  0  0
   -4.5081  -11.0718    7.6217 O   0  0  0  0  0  0
   -1.7816   -8.1472    6.2125 C   0  0  0  0  0  0
   -1.2693   -7.5162    5.3005 O   0  0  0  0  0  0
   -1.0744   -8.6157    7.2500 O   0  0  0  0  0  0
    1.7179  -10.5067    3.0292 O   0  0  0  0  0  0
    2.8446  -11.2337    2.6824 C   0  0  0  0  0  0
    2.8274  -12.3700    2.2276 O   0  0  0  0  0  0
    4.1422  -10.4534    2.9307 C   0  0  0  0  0  0
    4.6484  -10.4329    4.4065 C   0  0  0  0  0  0
    5.9434   -9.6600    4.7163 C   0  0  0  0  0  0
    6.5011   -8.9460    3.5189 C   0  0  0  0  0  0
    5.8538   -8.2929    2.7121 O   0  0  0  0  0  0
    7.8326   -9.0775    3.4172 O   0  0  0  0  0  0
    3.5997   -9.9899    5.4342 C   0  0  0  0  0  0
    2.5827   -9.3998    5.1274 O   0  0  0  0  0  0
    3.8250  -10.3928    6.7024 O   0  0  0  0  0  0
   -5.5050   -6.8921   -7.2280 H   0  0  0  0  0  0
   -4.4638   -6.1104   -6.2658 H   0  0  0  0  0  0
   -2.2784   -7.8778   -3.8743 H   0  0  0  0  0  0
    0.0406  -10.3515   -7.2087 H   0  0  0  0  0  0
    3.9678  -10.9240   -0.7791 H   0  0  0  0  0  0
   -5.2226  -10.6211    7.1320 H   0  0  0  0  0  0
   -1.5047   -9.3625    7.7356 H   0  0  0  0  0  0
    8.1150   -9.6586    4.1546 H   0  0  0  0  0  0
    4.6965  -10.8199    6.8585 H   0  0  0  0  0  0
  1  2  1  0  0  0
  2  3  1  0  0  0
  3  4  1  0  0  0
  4  5  1  0  0  0
  5  6  1  0  0  0
  5  7  1  0  0  0
  7  8  1  0  0  0
  7 39  1  0  0  0
  8  9  1  0  0  0
  8 27  1  0  0  0
  9 10  1  0  0  0
 10 11  1  0  0  0
 10 12  1  0  0  0
 12 13  1  0  0  0
 13 14  1  0  0  0
 13 26  1  0  0  0
 14 15  1  0  0  0
 15 16  1  0  0  0
 16 17  1  0  0  0
 17 18  1  0  0  0
 18 19  1  0  0  0
 18 25  1  0  0  0
 19 20  1  0  0  0
 20 21  1  0  0  0
 20 24  1  0  0  0
 21 22  1  0  0  0
 21 23  1  0  0  0
 23 51  1  0  0  0
 23 52  1  0  0  0
 24 53  1  0  0  0
 25 54  1  0  0  0
 26 55  1  0  0  0
 27 28  1  0  0  0
 28 29  2  0  0  0
 28 30  1  0  0  0
 30 31  1  0  0  0
 31 32  1  0  0  0
 31 36  1  0  0  0
 32 33  1  0  0  0
 33 34  2  0  0  0
 33 35  1  0  0  0
 35 56  1  0  0  0
 36 37  2  0  0  0
 36 38  1  0  0  0
 38 57  1  0  0  0
 39 40  1  0  0  0
 40 41  2  0  0  0
 40 42  1  0  0  0
 42 43  1  0  0  0
 43 44  1  0  0  0
 43 48  1  0  0  0
 44 45  1  0  0  0
 45 46  2  0  0  0
 45 47  1  0  0  0
 47 58  1  0  0  0
 48 49  2  0  0  0
 48 50  1  0  0  0
 50 59  1  0  0  0
M  END
>  <AUTHOR>
    GENERATED BY OPEN BABEL 2.4.1

>  <CHROM.1>
178.07809300,37.61499387,109.83272534,-176.47479517,-129.08763904,82.35699484
-51.71618167,150.18899915,-122.09809374,159.31818314,60.13889812,-95.27767056
-179.11160665,74.15174793,69.52349345,87.92742184,-156.19255375,-65.95773468
176.43905846,-81.80576470,69.13225002,67.43196282,150.57260010,17.97635937
123.31242374,-166.73441871,29.23450142,78.97674953,95.94596527,3.04251359
18.76079816,20.37543646,79.97916433,-179.75876636,3.58318773,-17.08522469
44.02735968,2.40542329,8.09189982,0.16314045,-10.19987169,1.93793544,1.33795001
-0.13654257,1.66611946

>  <COMPND>
    UNNAMED

>  <MASTER>
        0    0    0    0    0    0    0    0  109    0  109    0

>  <Name>
FB1.pdb

>  <RI>
0

>  <Rbt.Current_Directory>
/cluster/tossine/F10/p3/0_clust01/stat

>  <Rbt.Executable>
rbdock/0.1.0

>  <Rbt.Library>
librxdock.so/0.1.0

>  <Rbt.Parameter_File>
/cluster/rxdock/data/scripts/dock.prm

>  <Rbt.Receptor>
rx_3.prm

>  <SCORE>
48.0947

>  <SCORE.INTER>
14.911

>  <SCORE.INTER.CONST>
1

>  <SCORE.INTER.POLAR>
0

>  <SCORE.INTER.REPUL>
0.27891

>  <SCORE.INTER.ROT>
32

>  <SCORE.INTER.VDW>
-23.8835

>  <SCORE.INTER.norm>
0.298221

>  <SCORE.INTRA>
26.4058

>  <SCORE.INTRA.DIHEDRAL>
21.7444

>  <SCORE.INTRA.DIHEDRAL.0>
47.3121

>  <SCORE.INTRA.POLAR>
1.47808

>  <SCORE.INTRA.POLAR.0>
-1.47808

>  <SCORE.INTRA.REPUL>
0

>  <SCORE.INTRA.REPUL.0>
0

>  <SCORE.INTRA.VDW>
10.5081

>  <SCORE.INTRA.VDW.0>
-2.78316

>  <SCORE.INTRA.norm>
0.528116

>  <SCORE.RESTR>
6.77791

>  <SCORE.RESTR.CAVITY>
6.77791

>  <SCORE.RESTR.norm>
0.135558

>  <SCORE.SYSTEM>
0

>  <SCORE.SYSTEM.CONST>
0

>  <SCORE.SYSTEM.DIHEDRAL>
0

>  <SCORE.SYSTEM.norm>
0

>  <SCORE.heavy>
50

>  <SCORE.norm>
0.961895

$$$$
