FB1.pdb
  RxDock  10072012083D
librxdock.so/0.1.0
 59 58  0  0  0  0  0  0  0  0999 V2000
   -0.8171   -8.2257    5.5621 C   0  0  0  0  0  0
   -1.8578   -9.3061    5.2774 C   0  0  0  0  0  0
   -2.0658   -9.5127    3.7680 C   0  0  0  0  0  0
   -0.8004  -10.0228    3.0343 C   0  0  0  0  0  0
   -1.0220  -10.4241    1.5342 C   0  0  0  0  0  0
   -1.2694   -9.1344    0.7181 C   0  0  0  0  0  0
    0.1762  -11.2634    0.9196 C   0  0  0  0  0  0
    0.6796  -10.8459   -0.5427 C   0  0  0  0  0  0
    1.8646  -11.5476   -1.3375 C   0  0  0  0  0  0
    3.0134  -10.5222   -1.9293 C   0  0  0  0  0  0
    4.2398  -10.5915   -1.0208 C   0  0  0  0  0  0
    3.4553  -10.7600   -3.4435 C   0  0  0  0  0  0
    3.5656   -9.5861   -4.5519 C   0  0  0  0  0  0
    2.3119   -9.0176   -5.3011 C   0  0  0  0  0  0
    1.8821   -9.6961   -6.6809 C   0  0  0  0  0  0
    2.5494   -9.3735   -8.0757 C   0  0  0  0  0  0
    1.7295   -8.6273   -9.1612 C   0  0  0  0  0  0
    2.4608   -8.3502  -10.5315 C   0  0  0  0  0  0
    3.5818   -7.3038  -10.5040 C   0  0  0  0  0  0
    3.2653   -5.8706  -11.0180 C   0  0  0  0  0  0
    1.9820   -5.1257  -10.5452 C   0  0  0  0  0  0
    0.6532   -5.6975  -11.0195 C   0  0  0  0  0  0
    1.9869   -4.9479   -9.0807 N   0  0  0  0  0  0
    4.3682   -5.0575  -10.5420 O   0  0  0  0  0  0
    3.0060   -9.5886  -10.9994 O   0  0  0  0  0  0
    4.1225   -8.4637   -3.8472 O   0  0  0  0  0  0
   -0.4706  -10.9779   -1.4214 O   0  0  0  0  0  0
   -0.3733  -10.4145   -2.6537 C   0  0  0  0  0  0
    0.6561  -10.1216   -3.2316 O   0  0  0  0  0  0
   -1.7551  -10.3031   -3.2365 C   0  0  0  0  0  0
   -1.7965   -9.4176   -4.4922 C   0  0  0  0  0  0
   -1.3619  -10.1692   -5.7570 C   0  0  0  0  0  0
   -1.4563   -9.2829   -6.9773 C   0  0  0  0  0  0
   -2.0756   -8.2248   -7.0008 O   0  0  0  0  0  0
   -0.7935   -9.7638   -8.0395 O   0  0  0  0  0  0
   -3.2523   -8.9518   -4.6321 C   0  0  0  0  0  0
   -4.0501   -9.4764   -5.3943 O   0  0  0  0  0  0
   -3.5664   -7.8859   -3.8830 O   0  0  0  0  0  0
    1.2997  -11.3761    1.8814 O   0  0  0  0  0  0
    1.1777  -12.2653    2.9361 C   0  0  0  0  0  0
    0.1137  -12.6441    3.4080 O   0  0  0  0  0  0
    2.5396  -12.7369    3.4626 C   0  0  0  0  0  0
    3.2760  -11.7474    4.4182 C   0  0  0  0  0  0
    3.6472  -10.3563    3.8727 C   0  0  0  0  0  0
    4.9489   -9.8415    4.4157 C   0  0  0  0  0  0
    5.1039   -9.2947    5.4990 O   0  0  0  0  0  0
    5.9758  -10.0600    3.5801 O   0  0  0  0  0  0
    2.5852  -11.5340    5.7708 C   0  0  0  0  0  0
    3.0507  -11.9326    6.8201 O   0  0  0  0  0  0
    1.4693  -10.7757    5.7382 O   0  0  0  0  0  0
    2.7642   -4.3426   -8.8203 H   0  0  0  0  0  0
    2.1959   -5.8481   -8.6431 H   0  0  0  0  0  0
    5.1571   -5.4215  -10.9965 H   0  0  0  0  0  0
    2.2665  -10.1982  -11.1784 H   0  0  0  0  0  0
    4.3515   -7.7818   -4.5007 H   0  0  0  0  0  0
   -0.8851   -9.2412   -8.8592 H   0  0  0  0  0  0
   -2.8767   -7.6330   -3.2202 H   0  0  0  0  0  0
    6.7808   -9.7287    4.0310 H   0  0  0  0  0  0
    1.0318  -10.6352    6.6071 H   0  0  0  0  0  0
  1  2  1  0  0  0
  2  3  1  0  0  0
  3  4  1  0  0  0
  4  5  1  0  0  0
  5  6  1  0  0  0
  5  7  1  0  0  0
  7  8  1  0  0  0
  7 39  1  0  0  0
  8  9  1  0  0  0
  8 27  1  0  0  0
  9 10  1  0  0  0
 10 11  1  0  0  0
 10 12  1  0  0  0
 12 13  1  0  0  0
 13 14  1  0  0  0
 13 26  1  0  0  0
 14 15  1  0  0  0
 15 16  1  0  0  0
 16 17  1  0  0  0
 17 18  1  0  0  0
 18 19  1  0  0  0
 18 25  1  0  0  0
 19 20  1  0  0  0
 20 21  1  0  0  0
 20 24  1  0  0  0
 21 22  1  0  0  0
 21 23  1  0  0  0
 23 51  1  0  0  0
 23 52  1  0  0  0
 24 53  1  0  0  0
 25 54  1  0  0  0
 26 55  1  0  0  0
 27 28  1  0  0  0
 28 29  2  0  0  0
 28 30  1  0  0  0
 30 31  1  0  0  0
 31 32  1  0  0  0
 31 36  1  0  0  0
 32 33  1  0  0  0
 33 34  2  0  0  0
 33 35  1  0  0  0
 35 56  1  0  0  0
 36 37  2  0  0  0
 36 38  1  0  0  0
 38 57  1  0  0  0
 39 40  1  0  0  0
 40 41  2  0  0  0
 40 42  1  0  0  0
 42 43  1  0  0  0
 43 44  1  0  0  0
 43 48  1  0  0  0
 44 45  1  0  0  0
 45 46  2  0  0  0
 45 47  1  0  0  0
 47 58  1  0  0  0
 48 49  2  0  0  0
 48 50  1  0  0  0
 50 59  1  0  0  0
M  END
>  <AUTHOR>
    GENERATED BY OPEN BABEL 2.4.1

>  <CHROM.1>
63.27719617,172.35529425,70.46458816,-135.31573716,179.74875630,76.34180673
-128.81636998,166.48190614,102.53925135,131.95912584,-79.90209693,-90.84959424
170.39219286,-81.41755980,-111.63991619,-179.57461804,-70.42139521,-100.55380942
63.86040183,47.58828370,-67.77170421,63.59773063,64.23808505,20.48600096
167.93873853,81.60840049,178.20119920,-99.27689537,-15.28271786,176.18670283
-10.27815237,-24.98099429,79.80045487,-60.69175279,-144.86497624,111.16806684
-81.75926013,-177.63313937,-179.59880990,1.17687849,-9.53635120,-2.31173713
1.55303001,0.05358078,1.80307309

>  <COMPND>
    UNNAMED

>  <MASTER>
        0    0    0    0    0    0    0    0  109    0  109    0

>  <Name>
FB1.pdb

>  <RI>
0

>  <Rbt.Current_Directory>
/cluster/tossine/F10/p3/0_clust01/stat

>  <Rbt.Executable>
rbdock/0.1.0

>  <Rbt.Library>
librxdock.so/0.1.0

>  <Rbt.Parameter_File>
/cluster/rxdock/data/scripts/dock.prm

>  <Rbt.Receptor>
rx_3.prm

>  <SCORE>
19.7147

>  <SCORE.INTER>
2.73385

>  <SCORE.INTER.CONST>
1

>  <SCORE.INTER.POLAR>
-2.22321

>  <SCORE.INTER.REPUL>
0.232126

>  <SCORE.INTER.ROT>
32

>  <SCORE.INTER.VDW>
-28.2679

>  <SCORE.INTER.norm>
0.0546771

>  <SCORE.INTRA>
14.489

>  <SCORE.INTRA.DIHEDRAL>
18.1514

>  <SCORE.INTRA.DIHEDRAL.0>
47.3121

>  <SCORE.INTRA.POLAR>
1.47808

>  <SCORE.INTRA.POLAR.0>
-1.47808

>  <SCORE.INTRA.REPUL>
0

>  <SCORE.INTRA.REPUL.0>
0

>  <SCORE.INTRA.VDW>
0.387831

>  <SCORE.INTRA.VDW.0>
-2.78316

>  <SCORE.INTRA.norm>
0.289779

>  <SCORE.RESTR>
2.49186

>  <SCORE.RESTR.CAVITY>
2.49186

>  <SCORE.RESTR.norm>
0.0498373

>  <SCORE.SYSTEM>
0

>  <SCORE.SYSTEM.CONST>
0

>  <SCORE.SYSTEM.DIHEDRAL>
0

>  <SCORE.SYSTEM.norm>
0

>  <SCORE.heavy>
50

>  <SCORE.norm>
0.394294

$$$$
