FB1.pdb
  RxDock  10072011463D
librxdock.so/0.1.0
 59 58  0  0  0  0  0  0  0  0999 V2000
    4.6675  -14.3823    4.1436 C   0  0  0  0  0  0
    3.5766  -13.3419    4.3866 C   0  0  0  0  0  0
    3.4324  -13.0064    5.8802 C   0  0  0  0  0  0
    2.3707  -11.9157    6.1685 C   0  0  0  0  0  0
    0.9496  -12.2010    5.5688 C   0  0  0  0  0  0
    0.1329  -12.9968    6.6130 C   0  0  0  0  0  0
    0.1757  -10.8895    5.1227 C   0  0  0  0  0  0
   -0.3795  -10.8501    3.6206 C   0  0  0  0  0  0
   -1.7576  -10.1964    3.1713 C   0  0  0  0  0  0
   -2.5298  -10.9716    1.9368 C   0  0  0  0  0  0
   -4.0328  -10.7399    2.0833 C   0  0  0  0  0  0
   -2.0691  -10.5772    0.4613 C   0  0  0  0  0  0
   -0.6630   -9.8566    0.1117 C   0  0  0  0  0  0
    0.5100  -10.6074   -0.6070 C   0  0  0  0  0  0
    0.2286  -11.2586   -2.0374 C   0  0  0  0  0  0
   -0.3532  -10.4680   -3.2748 C   0  0  0  0  0  0
   -1.7879   -9.8817   -3.2016 C   0  0  0  0  0  0
   -2.6421   -9.9395   -4.5268 C   0  0  0  0  0  0
   -2.2542   -8.9460   -5.6290 C   0  0  0  0  0  0
   -0.7639   -8.8765   -6.0678 C   0  0  0  0  0  0
    0.0624  -10.1806   -6.2726 C   0  0  0  0  0  0
   -0.4824  -11.1754   -7.2879 C   0  0  0  0  0  0
    1.4777   -9.8682   -6.5476 N   0  0  0  0  0  0
   -0.7939   -8.2423   -7.3720 O   0  0  0  0  0  0
   -2.5468  -11.2662   -5.0563 O   0  0  0  0  0  0
   -1.0111   -8.7746   -0.7684 O   0  0  0  0  0  0
    0.6235  -10.1508    2.8349 O   0  0  0  0  0  0
    1.6950  -10.8742    2.4179 C   0  0  0  0  0  0
    1.8622  -12.0686    2.5758 O   0  0  0  0  0  0
    2.6038   -9.9693    1.6326 C   0  0  0  0  0  0
    4.0655  -10.4444    1.6460 C   0  0  0  0  0  0
    4.9090   -9.7849    0.5474 C   0  0  0  0  0  0
    4.4520  -10.2199   -0.8257 C   0  0  0  0  0  0
    3.3211  -10.6284   -1.0664 O   0  0  0  0  0  0
    5.4047  -10.1152   -1.7639 O   0  0  0  0  0  0
    4.6180  -10.0703    3.0283 C   0  0  0  0  0  0
    5.6672   -9.4646    3.1856 O   0  0  0  0  0  0
    3.8776  -10.5068    4.0565 O   0  0  0  0  0  0
   -0.8690  -10.5225    6.1096 O   0  0  0  0  0  0
   -0.7093   -9.3530    6.8341 C   0  0  0  0  0  0
    0.1368   -8.4996    6.6013 O   0  0  0  0  0  0
   -1.7220   -9.2337    7.9807 C   0  0  0  0  0  0
   -3.1742   -9.7008    7.6531 C   0  0  0  0  0  0
   -3.6261   -9.6799    6.1815 C   0  0  0  0  0  0
   -4.0015  -11.0385    5.6638 C   0  0  0  0  0  0
   -5.1098  -11.3689    5.2649 O   0  0  0  0  0  0
   -2.9650  -11.8904    5.6596 O   0  0  0  0  0  0
   -3.5451  -11.0762    8.2213 C   0  0  0  0  0  0
   -2.8127  -11.7050    8.9595 O   0  0  0  0  0  0
   -4.7925  -11.5043    7.9348 O   0  0  0  0  0  0
    2.0577  -10.6476   -6.2399 H   0  0  0  0  0  0
    1.7591   -9.0816   -5.9581 H   0  0  0  0  0  0
   -1.2870   -8.8707   -7.9405 H   0  0  0  0  0  0
   -2.7947  -11.8933   -4.3521 H   0  0  0  0  0  0
   -1.6353   -8.1951   -0.3004 H   0  0  0  0  0  0
    6.2947   -9.8910   -1.4307 H   0  0  0  0  0  0
    4.1355  -10.1329    4.9354 H   0  0  0  0  0  0
   -2.2170  -11.4256    6.0905 H   0  0  0  0  0  0
   -5.0572  -12.3460    8.3680 H   0  0  0  0  0  0
  1  2  1  0  0  0
  2  3  1  0  0  0
  3  4  1  0  0  0
  4  5  1  0  0  0
  5  6  1  0  0  0
  5  7  1  0  0  0
  7  8  1  0  0  0
  7 39  1  0  0  0
  8  9  1  0  0  0
  8 27  1  0  0  0
  9 10  1  0  0  0
 10 11  1  0  0  0
 10 12  1  0  0  0
 12 13  1  0  0  0
 13 14  1  0  0  0
 13 26  1  0  0  0
 14 15  1  0  0  0
 15 16  1  0  0  0
 16 17  1  0  0  0
 17 18  1  0  0  0
 18 19  1  0  0  0
 18 25  1  0  0  0
 19 20  1  0  0  0
 20 21  1  0  0  0
 20 24  1  0  0  0
 21 22  1  0  0  0
 21 23  1  0  0  0
 23 51  1  0  0  0
 23 52  1  0  0  0
 24 53  1  0  0  0
 25 54  1  0  0  0
 26 55  1  0  0  0
 27 28  1  0  0  0
 28 29  2  0  0  0
 28 30  1  0  0  0
 30 31  1  0  0  0
 31 32  1  0  0  0
 31 36  1  0  0  0
 32 33  1  0  0  0
 33 34  2  0  0  0
 33 35  1  0  0  0
 35 56  1  0  0  0
 36 37  2  0  0  0
 36 38  1  0  0  0
 38 57  1  0  0  0
 39 40  1  0  0  0
 40 41  2  0  0  0
 40 42  1  0  0  0
 42 43  1  0  0  0
 43 44  1  0  0  0
 43 48  1  0  0  0
 44 45  1  0  0  0
 45 46  2  0  0  0
 45 47  1  0  0  0
 47 58  1  0  0  0
 48 49  2  0  0  0
 48 50  1  0  0  0
 50 59  1  0  0  0
M  END
>  <AUTHOR>
    GENERATED BY OPEN BABEL 2.4.1

>  <CHROM.1>
177.90319269,53.54081334,89.52329656,126.58367890,142.86478025,113.17668993
-145.22608984,81.55730973,151.29486728,19.25233556,108.45383937,57.84456414
58.79161145,54.45766722,-64.41226487,-142.66344712,-73.99433988,51.30259630
53.17361342,42.99585639,57.87537688,-63.97542644,152.90745393,4.29700155
154.49743403,163.51325017,-66.38848743,-129.70256808,24.10189818,7.84296735
-169.44969762,10.35544055,-40.33393721,-24.52882379,118.87266849,5.86785222
117.57202401,5.54267323,-174.56925264,0.06849460,-10.62981845,1.80371696
-1.68298603,0.07951536,-1.45974525

>  <COMPND>
    UNNAMED

>  <MASTER>
        0    0    0    0    0    0    0    0  109    0  109    0

>  <Name>
FB1.pdb

>  <RI>
0

>  <Rbt.Current_Directory>
/cluster/tossine/F10/p3/0_clust01/stat

>  <Rbt.Executable>
rbdock/0.1.0

>  <Rbt.Library>
librxdock.so/0.1.0

>  <Rbt.Parameter_File>
/cluster/rxdock/data/scripts/dock.prm

>  <Rbt.Receptor>
rx_3.prm

>  <SCORE>
37.9769

>  <SCORE.INTER>
17.7412

>  <SCORE.INTER.CONST>
1

>  <SCORE.INTER.POLAR>
0

>  <SCORE.INTER.REPUL>
0.764577

>  <SCORE.INTER.ROT>
32

>  <SCORE.INTER.VDW>
-23.4817

>  <SCORE.INTER.norm>
0.354823

>  <SCORE.INTRA>
14.8987

>  <SCORE.INTRA.DIHEDRAL>
18.2897

>  <SCORE.INTRA.DIHEDRAL.0>
47.3121

>  <SCORE.INTRA.POLAR>
0.556156

>  <SCORE.INTRA.POLAR.0>
-1.47808

>  <SCORE.INTRA.REPUL>
0

>  <SCORE.INTRA.REPUL.0>
0

>  <SCORE.INTRA.VDW>
3.86295

>  <SCORE.INTRA.VDW.0>
-2.78316

>  <SCORE.INTRA.norm>
0.297974

>  <SCORE.RESTR>
5.33706

>  <SCORE.RESTR.CAVITY>
5.33706

>  <SCORE.RESTR.norm>
0.106741

>  <SCORE.SYSTEM>
0

>  <SCORE.SYSTEM.CONST>
0

>  <SCORE.SYSTEM.DIHEDRAL>
0

>  <SCORE.SYSTEM.norm>
0

>  <SCORE.heavy>
50

>  <SCORE.norm>
0.759539

$$$$
