FB1.pdb
  RxDock  10072012003D
librxdock.so/0.1.0
 59 58  0  0  0  0  0  0  0  0999 V2000
   -3.6345  -12.0338    9.4768 C   0  0  0  0  0  0
   -4.3520  -12.1480    8.1339 C   0  0  0  0  0  0
   -4.2705  -10.8387    7.3317 C   0  0  0  0  0  0
   -2.9482  -10.6805    6.5404 C   0  0  0  0  0  0
   -3.0216   -9.6991    5.3190 C   0  0  0  0  0  0
   -2.9486   -8.2506    5.8549 C   0  0  0  0  0  0
   -1.8971   -9.9585    4.2298 C   0  0  0  0  0  0
   -2.1592   -9.3720    2.7623 C   0  0  0  0  0  0
   -2.1887  -10.2319    1.4251 C   0  0  0  0  0  0
   -0.8360  -11.1329    1.1429 C   0  0  0  0  0  0
   -0.9363  -12.4250    1.9520 C   0  0  0  0  0  0
   -0.5283  -11.4801   -0.3834 C   0  0  0  0  0  0
    0.9139  -11.2746   -1.0879 C   0  0  0  0  0  0
    1.1290  -11.4546   -2.6298 C   0  0  0  0  0  0
    2.5378  -11.0339   -3.2522 C   0  0  0  0  0  0
    2.9441   -9.5500   -3.6091 C   0  0  0  0  0  0
    2.4387   -8.9159   -4.9319 C   0  0  0  0  0  0
    2.7159   -9.7290   -6.2552 C   0  0  0  0  0  0
    1.7934   -9.4284   -7.4431 C   0  0  0  0  0  0
    0.2662   -9.6641   -7.2688 C   0  0  0  0  0  0
   -0.2777  -10.4537   -6.0416 C   0  0  0  0  0  0
    0.3236  -11.8315   -5.8019 C   0  0  0  0  0  0
   -0.2162   -9.6314   -4.8183 N   0  0  0  0  0  0
   -0.2985   -8.3343   -7.1399 O   0  0  0  0  0  0
    4.0676   -9.4765   -6.6537 O   0  0  0  0  0  0
    1.2662   -9.9075   -0.8170 O   0  0  0  0  0  0
   -3.4634   -8.7320    2.8074 O   0  0  0  0  0  0
   -3.4840   -7.3863    2.9912 C   0  0  0  0  0  0
   -2.5750   -6.7057    3.4270 O   0  0  0  0  0  0
   -4.7901   -6.8545    2.4690 C   0  0  0  0  0  0
   -4.7649   -6.6138    0.9511 C   0  0  0  0  0  0
   -5.4393   -5.2947    0.5530 C   0  0  0  0  0  0
   -6.1139   -5.4122   -0.7940 C   0  0  0  0  0  0
   -7.2279   -4.9606   -1.0364 O   0  0  0  0  0  0
   -5.3748   -6.0595   -1.7071 O   0  0  0  0  0  0
   -3.2827   -6.5871    0.5529 C   0  0  0  0  0  0
   -2.5012   -7.4840    0.8306 O   0  0  0  0  0  0
   -2.9014   -5.4717   -0.0848 O   0  0  0  0  0  0
   -0.5570   -9.5857    4.7445 O   0  0  0  0  0  0
    0.5521   -9.8792    3.9687 C   0  0  0  0  0  0
    0.6202   -9.7084    2.7585 O   0  0  0  0  0  0
    1.7097  -10.4511    4.7977 C   0  0  0  0  0  0
    2.8316  -11.1718    3.9875 C   0  0  0  0  0  0
    4.1033  -10.3740    3.6457 C   0  0  0  0  0  0
    4.1250   -9.8848    2.2263 C   0  0  0  0  0  0
    5.1203   -9.5336    1.6078 O   0  0  0  0  0  0
    2.9063   -9.8841    1.6650 O   0  0  0  0  0  0
    3.2835  -12.5130    4.5784 C   0  0  0  0  0  0
    4.2296  -12.6163    5.3341 O   0  0  0  0  0  0
    2.4939  -13.5687    4.2900 O   0  0  0  0  0  0
   -0.9742   -9.9040   -4.1941 H   0  0  0  0  0  0
   -0.4164   -8.6601   -5.0672 H   0  0  0  0  0  0
    0.0540   -7.8408   -7.9103 H   0  0  0  0  0  0
    4.6343   -9.5364   -5.8627 H   0  0  0  0  0  0
    1.3651   -9.8073    0.1446 H   0  0  0  0  0  0
   -4.5140   -6.3912   -1.3871 H   0  0  0  0  0  0
   -3.6260   -5.0139   -0.5789 H   0  0  0  0  0  0
    2.9950   -9.4305    0.8004 H   0  0  0  0  0  0
    1.8934  -13.4461    3.5215 H   0  0  0  0  0  0
  1  2  1  0  0  0
  2  3  1  0  0  0
  3  4  1  0  0  0
  4  5  1  0  0  0
  5  6  1  0  0  0
  5  7  1  0  0  0
  7  8  1  0  0  0
  7 39  1  0  0  0
  8  9  1  0  0  0
  8 27  1  0  0  0
  9 10  1  0  0  0
 10 11  1  0  0  0
 10 12  1  0  0  0
 12 13  1  0  0  0
 13 14  1  0  0  0
 13 26  1  0  0  0
 14 15  1  0  0  0
 15 16  1  0  0  0
 16 17  1  0  0  0
 17 18  1  0  0  0
 18 19  1  0  0  0
 18 25  1  0  0  0
 19 20  1  0  0  0
 20 21  1  0  0  0
 20 24  1  0  0  0
 21 22  1  0  0  0
 21 23  1  0  0  0
 23 51  1  0  0  0
 23 52  1  0  0  0
 24 53  1  0  0  0
 25 54  1  0  0  0
 26 55  1  0  0  0
 27 28  1  0  0  0
 28 29  2  0  0  0
 28 30  1  0  0  0
 30 31  1  0  0  0
 31 32  1  0  0  0
 31 36  1  0  0  0
 32 33  1  0  0  0
 33 34  2  0  0  0
 33 35  1  0  0  0
 35 56  1  0  0  0
 36 37  2  0  0  0
 36 38  1  0  0  0
 38 57  1  0  0  0
 39 40  1  0  0  0
 40 41  2  0  0  0
 40 42  1  0  0  0
 42 43  1  0  0  0
 43 44  1  0  0  0
 43 48  1  0  0  0
 44 45  1  0  0  0
 45 46  2  0  0  0
 45 47  1  0  0  0
 47 58  1  0  0  0
 48 49  2  0  0  0
 48 50  1  0  0  0
 50 59  1  0  0  0
M  END
>  <AUTHOR>
    GENERATED BY OPEN BABEL 2.4.1

>  <CHROM.1>
82.77928893,157.51977025,78.37070589,160.23190447,-122.50374072,173.43720351
-55.32384539,97.67517942,81.87053108,131.12305634,-172.02285701,171.67121065
63.74443618,-80.73332160,-80.01680524,-52.85996429,157.01785286,-59.67813950
44.64149067,-12.42015969,-53.45147248,51.62251809,149.59014324,-18.40527900
-83.42537765,-137.50129267,-147.00610078,53.51173437,136.95321038,1.52183155
-26.70248017,43.07113873,163.64605238,97.67044640,-101.87425725,-93.77467246
-160.57057780,171.76646627,18.68684605,-0.59205233,-9.49510741,0.76920707
-1.91991618,0.50416337,-1.35052856

>  <COMPND>
    UNNAMED

>  <MASTER>
        0    0    0    0    0    0    0    0  109    0  109    0

>  <Name>
FB1.pdb

>  <RI>
0

>  <Rbt.Current_Directory>
/cluster/tossine/F10/p3/0_clust01/stat

>  <Rbt.Executable>
rbdock/0.1.0

>  <Rbt.Library>
librxdock.so/0.1.0

>  <Rbt.Parameter_File>
/cluster/rxdock/data/scripts/dock.prm

>  <Rbt.Receptor>
rx_3.prm

>  <SCORE>
56.9953

>  <SCORE.INTER>
15.4121

>  <SCORE.INTER.CONST>
1

>  <SCORE.INTER.POLAR>
-1.0658

>  <SCORE.INTER.REPUL>
0.721601

>  <SCORE.INTER.ROT>
32

>  <SCORE.INTER.VDW>
-21.9722

>  <SCORE.INTER.norm>
0.308241

>  <SCORE.INTRA>
35.0905

>  <SCORE.INTRA.DIHEDRAL>
39.4408

>  <SCORE.INTRA.DIHEDRAL.0>
47.3121

>  <SCORE.INTRA.POLAR>
0.467317

>  <SCORE.INTRA.POLAR.0>
-1.47808

>  <SCORE.INTRA.REPUL>
0

>  <SCORE.INTRA.REPUL.0>
0

>  <SCORE.INTRA.VDW>
13.7812

>  <SCORE.INTRA.VDW.0>
-2.78316

>  <SCORE.INTRA.norm>
0.70181

>  <SCORE.RESTR>
6.49277

>  <SCORE.RESTR.CAVITY>
6.49277

>  <SCORE.RESTR.norm>
0.129855

>  <SCORE.SYSTEM>
0

>  <SCORE.SYSTEM.CONST>
0

>  <SCORE.SYSTEM.DIHEDRAL>
0

>  <SCORE.SYSTEM.norm>
0

>  <SCORE.heavy>
50

>  <SCORE.norm>
1.13991

$$$$
