FB1.pdb
  RxDock  10072012063D
librxdock.so/0.1.0
 59 58  0  0  0  0  0  0  0  0999 V2000
   -4.7482  -12.5034    6.2262 C   0  0  0  0  0  0
   -5.2613  -11.9515    4.8983 C   0  0  0  0  0  0
   -5.0569  -10.4309    4.7966 C   0  0  0  0  0  0
   -3.5808  -10.0201    4.5688 C   0  0  0  0  0  0
   -3.1785   -9.8031    3.0683 C   0  0  0  0  0  0
   -3.9070   -8.5426    2.5476 C   0  0  0  0  0  0
   -1.6121   -9.6868    2.8430 C   0  0  0  0  0  0
   -0.6678  -10.3353    3.9629 C   0  0  0  0  0  0
    0.8772  -10.6629    3.7793 C   0  0  0  0  0  0
    1.3810  -12.0716    4.4745 C   0  0  0  0  0  0
    0.6737  -13.2348    3.7811 C   0  0  0  0  0  0
    2.9552  -12.3294    4.4798 C   0  0  0  0  0  0
    3.9066  -12.1623    3.1815 C   0  0  0  0  0  0
    3.4962  -12.6931    1.7652 C   0  0  0  0  0  0
    2.7419  -11.6961    0.7721 C   0  0  0  0  0  0
    3.3832  -10.3817    0.1760 C   0  0  0  0  0  0
    3.2037  -10.0589   -1.3310 C   0  0  0  0  0  0
    4.3046  -10.6242   -2.3096 C   0  0  0  0  0  0
    4.8121   -9.6612   -3.3902 C   0  0  0  0  0  0
    3.8063   -9.1661   -4.4680 C   0  0  0  0  0  0
    2.6779  -10.1050   -4.9881 C   0  0  0  0  0  0
    1.9941   -9.6895   -6.2832 C   0  0  0  0  0  0
    3.1495  -11.5008   -5.0651 N   0  0  0  0  0  0
    3.1128   -8.0569   -3.8416 O   0  0  0  0  0  0
    5.4202  -11.0507   -1.5203 O   0  0  0  0  0  0
    4.0641  -10.7427    3.0190 O   0  0  0  0  0  0
   -0.7117   -9.4346    5.1027 O   0  0  0  0  0  0
   -1.1383   -9.9538    6.2832 C   0  0  0  0  0  0
   -1.5281  -11.0908    6.4701 O   0  0  0  0  0  0
   -0.9539   -8.9148    7.3546 C   0  0  0  0  0  0
   -2.2899   -8.3921    7.9063 C   0  0  0  0  0  0
   -3.2310   -9.5236    8.3393 C   0  0  0  0  0  0
   -2.5133  -10.5248    9.2143 C   0  0  0  0  0  0
   -2.2264  -11.6603    8.8510 O   0  0  0  0  0  0
   -2.2154  -10.0520   10.4336 O   0  0  0  0  0  0
   -1.9332   -7.5145    9.1140 C   0  0  0  0  0  0
   -2.6505   -7.4095   10.0972 O   0  0  0  0  0  0
   -0.7885   -6.8302    8.9815 O   0  0  0  0  0  0
   -1.2335  -10.1246    1.4774 O   0  0  0  0  0  0
   -0.0127   -9.7142    0.9685 C   0  0  0  0  0  0
    0.9511   -9.3875    1.6488 O   0  0  0  0  0  0
    0.0091   -9.7115   -0.5658 C   0  0  0  0  0  0
   -0.4456  -11.0369   -1.2520 C   0  0  0  0  0  0
   -1.9149  -11.1541   -1.6968 C   0  0  0  0  0  0
   -2.2340  -10.3082   -2.8956 C   0  0  0  0  0  0
   -2.5516  -10.7270   -4.0003 O   0  0  0  0  0  0
   -2.1549   -8.9948   -2.6327 O   0  0  0  0  0  0
    0.4230  -11.4708   -2.4392 C   0  0  0  0  0  0
    1.0464  -12.5139   -2.4549 O   0  0  0  0  0  0
    0.3689  -10.6663   -3.5214 O   0  0  0  0  0  0
    3.7537  -11.6048   -5.8791 H   0  0  0  0  0  0
    2.3476  -12.1066   -5.2531 H   0  0  0  0  0  0
    3.8233   -7.4249   -3.6027 H   0  0  0  0  0  0
    5.7480  -10.2829   -1.0168 H   0  0  0  0  0  0
    4.7639  -10.5910    2.3619 H   0  0  0  0  0  0
   -2.5718   -9.1656   10.6353 H   0  0  0  0  0  0
   -0.6137   -6.1795    9.7059 H   0  0  0  0  0  0
   -2.4158   -8.5273   -3.4541 H   0  0  0  0  0  0
    0.6103  -11.0924   -4.3736 H   0  0  0  0  0  0
  1  2  1  0  0  0
  2  3  1  0  0  0
  3  4  1  0  0  0
  4  5  1  0  0  0
  5  6  1  0  0  0
  5  7  1  0  0  0
  7  8  1  0  0  0
  7 39  1  0  0  0
  8  9  1  0  0  0
  8 27  1  0  0  0
  9 10  1  0  0  0
 10 11  1  0  0  0
 10 12  1  0  0  0
 12 13  1  0  0  0
 13 14  1  0  0  0
 13 26  1  0  0  0
 14 15  1  0  0  0
 15 16  1  0  0  0
 16 17  1  0  0  0
 17 18  1  0  0  0
 18 19  1  0  0  0
 18 25  1  0  0  0
 19 20  1  0  0  0
 20 21  1  0  0  0
 20 24  1  0  0  0
 21 22  1  0  0  0
 21 23  1  0  0  0
 23 51  1  0  0  0
 23 52  1  0  0  0
 24 53  1  0  0  0
 25 54  1  0  0  0
 26 55  1  0  0  0
 27 28  1  0  0  0
 28 29  2  0  0  0
 28 30  1  0  0  0
 30 31  1  0  0  0
 31 32  1  0  0  0
 31 36  1  0  0  0
 32 33  1  0  0  0
 33 34  2  0  0  0
 33 35  1  0  0  0
 35 56  1  0  0  0
 36 37  2  0  0  0
 36 38  1  0  0  0
 38 57  1  0  0  0
 39 40  1  0  0  0
 40 41  2  0  0  0
 40 42  1  0  0  0
 42 43  1  0  0  0
 43 44  1  0  0  0
 43 48  1  0  0  0
 44 45  1  0  0  0
 45 46  2  0  0  0
 45 47  1  0  0  0
 47 58  1  0  0  0
 48 49  2  0  0  0
 48 50  1  0  0  0
 50 59  1  0  0  0
M  END
>  <AUTHOR>
    GENERATED BY OPEN BABEL 2.4.1

>  <CHROM.1>
73.35138896,94.55082717,68.48538408,22.66216459,163.71099781,160.32201142
-141.07830529,121.75133311,64.09460472,-48.34540418,-43.44931359,92.42435484
169.09762521,64.44019389,135.31116386,-89.91830517,-136.17350066,-64.04214121
-59.09443782,-34.64158200,-163.85835148,58.00049461,-75.69998111,-2.48897796
112.37115674,51.47060936,48.66925712,-147.37639799,-109.26335529,5.82470053
172.69049291,24.09555851,-52.06116141,95.14142933,72.15556018,118.08317185
114.22819006,-177.55688531,-156.61272454,-0.01869394,-10.31075707,2.09632042
1.96434710,-0.09860404,1.54879146

>  <COMPND>
    UNNAMED

>  <MASTER>
        0    0    0    0    0    0    0    0  109    0  109    0

>  <Name>
FB1.pdb

>  <RI>
0

>  <Rbt.Current_Directory>
/cluster/tossine/F10/p3/0_clust01/stat

>  <Rbt.Executable>
rbdock/0.1.0

>  <Rbt.Library>
librxdock.so/0.1.0

>  <Rbt.Parameter_File>
/cluster/rxdock/data/scripts/dock.prm

>  <Rbt.Receptor>
rx_3.prm

>  <SCORE>
38.8815

>  <SCORE.INTER>
15.5787

>  <SCORE.INTER.CONST>
1

>  <SCORE.INTER.POLAR>
-0.672022

>  <SCORE.INTER.REPUL>
0.250765

>  <SCORE.INTER.ROT>
32

>  <SCORE.INTER.VDW>
-20.7903

>  <SCORE.INTER.norm>
0.311573

>  <SCORE.INTRA>
16.5048

>  <SCORE.INTRA.DIHEDRAL>
19.3649

>  <SCORE.INTRA.DIHEDRAL.0>
47.3121

>  <SCORE.INTRA.POLAR>
1.47808

>  <SCORE.INTRA.POLAR.0>
-1.47808

>  <SCORE.INTRA.REPUL>
0.0123881

>  <SCORE.INTRA.REPUL.0>
0

>  <SCORE.INTRA.VDW>
1.73495

>  <SCORE.INTRA.VDW.0>
-2.78316

>  <SCORE.INTRA.norm>
0.330096

>  <SCORE.RESTR>
6.79805

>  <SCORE.RESTR.CAVITY>
6.79805

>  <SCORE.RESTR.norm>
0.135961

>  <SCORE.SYSTEM>
0

>  <SCORE.SYSTEM.CONST>
0

>  <SCORE.SYSTEM.DIHEDRAL>
0

>  <SCORE.SYSTEM.norm>
0

>  <SCORE.heavy>
50

>  <SCORE.norm>
0.77763

$$$$
