FB1.pdb
  RxDock  10072009183D
librxdock.so/0.1.0
 59 58  0  0  0  0  0  0  0  0999 V2000
    0.9791  -17.6006    0.6098 C   0  0  0  0  0  0
    1.7626  -17.3554    1.8972 C   0  0  0  0  0  0
    2.5152  -16.0151    1.8591 C   0  0  0  0  0  0
    1.5893  -14.7929    1.6387 C   0  0  0  0  0  0
    2.2132  -13.6363    0.7822 C   0  0  0  0  0  0
    2.1956  -14.0677   -0.7025 C   0  0  0  0  0  0
    1.4839  -12.2405    0.9762 C   0  0  0  0  0  0
    2.2260  -11.1550    1.8912 C   0  0  0  0  0  0
    3.7344  -11.2518    2.3847 C   0  0  0  0  0  0
    4.7091  -12.2183    1.4696 C   0  0  0  0  0  0
    4.4550  -11.9069   -0.0044 C   0  0  0  0  0  0
    6.2726  -12.1292    1.7733 C   0  0  0  0  0  0
    7.3493  -13.2516    1.3266 C   0  0  0  0  0  0
    8.8893  -13.0787    1.5607 C   0  0  0  0  0  0
    9.5811  -11.7230    1.0783 C   0  0  0  0  0  0
   11.1383  -11.5384    0.8892 C   0  0  0  0  0  0
   12.1003  -12.6809    1.3095 C   0  0  0  0  0  0
   12.5289  -12.7199    2.8274 C   0  0  0  0  0  0
   12.7309  -11.3620    3.5114 C   0  0  0  0  0  0
   13.5942  -10.2917    2.7850 C   0  0  0  0  0  0
   13.7388   -8.8579    3.3754 C   0  0  0  0  0  0
   12.4621   -8.0350    3.4769 C   0  0  0  0  0  0
   14.4489   -8.8910    4.6681 N   0  0  0  0  0  0
   14.9380  -10.8375    2.7910 O   0  0  0  0  0  0
   11.5305  -13.4488    3.5496 O   0  0  0  0  0  0
    6.9867  -14.4278    2.0693 O   0  0  0  0  0  0
    2.1661   -9.8993    1.1616 O   0  0  0  0  0  0
    2.4967   -8.7726    1.8446 C   0  0  0  0  0  0
    2.8300   -8.7112    3.0127 O   0  0  0  0  0  0
    2.4817   -7.6136    0.8866 C   0  0  0  0  0  0
    3.2910   -6.4123    1.4006 C   0  0  0  0  0  0
    3.3846   -5.2808    0.3690 C   0  0  0  0  0  0
    4.4351   -4.2688    0.7638 C   0  0  0  0  0  0
    5.5711   -4.2551    0.3023 O   0  0  0  0  0  0
    4.0057   -3.3792    1.6711 O   0  0  0  0  0  0
    2.5607   -5.9183    2.6571 C   0  0  0  0  0  0
    1.3621   -6.0724    2.8358 O   0  0  0  0  0  0
    3.3389   -5.2572    3.5251 O   0  0  0  0  0  0
    1.0614  -11.6714   -0.3267 O   0  0  0  0  0  0
    0.0586  -10.7163   -0.3346 C   0  0  0  0  0  0
   -0.8728  -10.6779    0.4589 O   0  0  0  0  0  0
    0.2382   -9.6905   -1.4614 C   0  0  0  0  0  0
   -0.0096  -10.2221   -2.9073 C   0  0  0  0  0  0
    0.0901   -9.2213   -4.0730 C   0  0  0  0  0  0
   -1.1340   -9.2097   -4.9424 C   0  0  0  0  0  0
   -2.1376   -9.8878   -4.7707 O   0  0  0  0  0  0
   -1.0338   -8.3386   -5.9580 O   0  0  0  0  0  0
    0.8306  -11.4471   -3.2889 C   0  0  0  0  0  0
    1.9071  -11.3618   -3.8462 O   0  0  0  0  0  0
    0.3470  -12.6350   -2.8691 O   0  0  0  0  0  0
   15.4381   -8.7030    4.5107 H   0  0  0  0  0  0
   14.4171   -9.8452    5.0339 H   0  0  0  0  0  0
   15.4908  -10.1364    2.3857 H   0  0  0  0  0  0
   11.4560  -14.3366    3.1537 H   0  0  0  0  0  0
    7.0546  -14.2186    3.0159 H   0  0  0  0  0  0
    4.6825   -2.7537    1.9939 H   0  0  0  0  0  0
    4.2901   -5.1972    3.2597 H   0  0  0  0  0  0
   -1.8671   -8.4065   -6.4701 H   0  0  0  0  0  0
    0.3066  -12.7507   -1.8938 H   0  0  0  0  0  0
  1  2  1  0  0  0
  2  3  1  0  0  0
  3  4  1  0  0  0
  4  5  1  0  0  0
  5  6  1  0  0  0
  5  7  1  0  0  0
  7  8  1  0  0  0
  7 39  1  0  0  0
  8  9  1  0  0  0
  8 27  1  0  0  0
  9 10  1  0  0  0
 10 11  1  0  0  0
 10 12  1  0  0  0
 12 13  1  0  0  0
 13 14  1  0  0  0
 13 26  1  0  0  0
 14 15  1  0  0  0
 15 16  1  0  0  0
 16 17  1  0  0  0
 17 18  1  0  0  0
 18 19  1  0  0  0
 18 25  1  0  0  0
 19 20  1  0  0  0
 20 21  1  0  0  0
 20 24  1  0  0  0
 21 22  1  0  0  0
 21 23  1  0  0  0
 23 51  1  0  0  0
 23 52  1  0  0  0
 24 53  1  0  0  0
 25 54  1  0  0  0
 26 55  1  0  0  0
 27 28  1  0  0  0
 28 29  2  0  0  0
 28 30  1  0  0  0
 30 31  1  0  0  0
 31 32  1  0  0  0
 31 36  1  0  0  0
 32 33  1  0  0  0
 33 34  2  0  0  0
 33 35  1  0  0  0
 35 56  1  0  0  0
 36 37  2  0  0  0
 36 38  1  0  0  0
 38 57  1  0  0  0
 39 40  1  0  0  0
 40 41  2  0  0  0
 40 42  1  0  0  0
 42 43  1  0  0  0
 43 44  1  0  0  0
 43 48  1  0  0  0
 44 45  1  0  0  0
 45 46  2  0  0  0
 45 47  1  0  0  0
 47 58  1  0  0  0
 48 49  2  0  0  0
 48 50  1  0  0  0
 50 59  1  0  0  0
M  END
>  <AUTHOR>
    GENERATED BY OPEN BABEL 2.4.1

>  <CHROM.1>
58.30645001,-145.19517547,75.94205923,103.53083593,12.31039137,159.24772257
22.53327309,167.45931596,45.28209785,161.65475350,175.78672332,-50.62233668
-60.59246902,-163.24909810,-5.82375121,-84.79216232,-36.15168618,-48.24995944
57.52952970,175.02565526,-62.94250774,-176.40523879,95.50507525,-0.54344230
-160.00569484,174.66016153,-166.77259592,-27.22741353,98.75589409,175.68490344
-1.89325194,-32.31064374,70.36889045,177.12975766,-126.19378028,-92.58155128
1.18147703,179.48145004,-63.94064018,4.69396836,-10.51146432,0.72283248,3.12029785
-0.36970372,0.04582445

>  <COMPND>
    UNNAMED

>  <MASTER>
        0    0    0    0    0    0    0    0  109    0  109    0

>  <Name>
FB1.pdb

>  <RI>
0

>  <Rbt.Current_Directory>
/home/fc/tossine/FB1_39/p3/1_clust05

>  <Rbt.Executable>
rbdock/0.1.0

>  <Rbt.Library>
librxdock.so/0.1.0

>  <Rbt.Parameter_File>
/cluster/rxdock/data/scripts/dock.prm

>  <Rbt.Receptor>
rx_3.prm

>  <SCORE>
111.745

>  <SCORE.INTER>
87.2324

>  <SCORE.INTER.CONST>
1

>  <SCORE.INTER.POLAR>
-1.85028

>  <SCORE.INTER.REPUL>
2.18446

>  <SCORE.INTER.ROT>
32

>  <SCORE.INTER.VDW>
45.201

>  <SCORE.INTER.norm>
1.74465

>  <SCORE.INTRA>
23.5681

>  <SCORE.INTRA.DIHEDRAL>
32.9451

>  <SCORE.INTRA.DIHEDRAL.0>
47.3121

>  <SCORE.INTRA.POLAR>
0.817394

>  <SCORE.INTRA.POLAR.0>
-1.47808

>  <SCORE.INTRA.REPUL>
0

>  <SCORE.INTRA.REPUL.0>
0

>  <SCORE.INTRA.VDW>
4.31635

>  <SCORE.INTRA.VDW.0>
-2.78316

>  <SCORE.INTRA.norm>
0.471361

>  <SCORE.RESTR>
0.944404

>  <SCORE.RESTR.CAVITY>
0.944404

>  <SCORE.RESTR.norm>
0.0188881

>  <SCORE.SYSTEM>
0

>  <SCORE.SYSTEM.CONST>
0

>  <SCORE.SYSTEM.DIHEDRAL>
0

>  <SCORE.SYSTEM.norm>
0

>  <SCORE.heavy>
50

>  <SCORE.norm>
2.2349

$$$$
