FB1.pdb
  RxDock  10072007243D
librxdock.so/0.1.0
 59 58  0  0  0  0  0  0  0  0999 V2000
    3.9840  -14.7309    3.0250 C   0  0  0  0  0  0
    3.6108  -13.3180    3.4676 C   0  0  0  0  0  0
    3.6066  -12.3337    2.2863 C   0  0  0  0  0  0
    2.2739  -11.5591    2.1327 C   0  0  0  0  0  0
    2.1135  -10.7802    0.7806 C   0  0  0  0  0  0
    0.6036  -10.6126    0.4931 C   0  0  0  0  0  0
    2.8531   -9.3764    0.7669 C   0  0  0  0  0  0
    2.5364   -8.4014   -0.4640 C   0  0  0  0  0  0
    1.5358   -7.1665   -0.4193 C   0  0  0  0  0  0
    0.4463   -7.1038   -1.6564 C   0  0  0  0  0  0
   -0.4072   -5.8479   -1.4880 C   0  0  0  0  0  0
    1.0536   -7.1441   -3.1309 C   0  0  0  0  0  0
    0.2788   -7.7510   -4.4154 C   0  0  0  0  0  0
   -1.2802   -7.6890   -4.5627 C   0  0  0  0  0  0
   -1.9246   -8.0875   -5.9681 C   0  0  0  0  0  0
   -1.8421   -9.5298   -6.6065 C   0  0  0  0  0  0
   -2.1805   -9.7215   -8.1086 C   0  0  0  0  0  0
   -1.1020   -9.2186   -9.1445 C   0  0  0  0  0  0
   -1.4828   -7.9893   -9.9789 C   0  0  0  0  0  0
   -0.4048   -7.3690  -10.9124 C   0  0  0  0  0  0
    0.6117   -8.2800  -11.6621 C   0  0  0  0  0  0
    1.7286   -8.8835  -10.8220 C   0  0  0  0  0  0
   -0.0884   -9.3227  -12.4360 N   0  0  0  0  0  0
   -1.1610   -6.7091  -11.9595 O   0  0  0  0  0  0
    0.0995   -8.9245   -8.4236 O   0  0  0  0  0  0
    0.7914   -7.0141   -5.5383 O   0  0  0  0  0  0
    3.8083   -7.8196   -0.8593 O   0  0  0  0  0  0
    4.2091   -6.7040   -0.1959 C   0  0  0  0  0  0
    3.7534   -6.2875    0.8521 O   0  0  0  0  0  0
    5.3878   -6.1163   -0.9217 C   0  0  0  0  0  0
    4.9838   -5.3981   -2.2192 C   0  0  0  0  0  0
    4.1232   -6.2775   -3.1353 C   0  0  0  0  0  0
    4.5990   -6.2021   -4.5675 C   0  0  0  0  0  0
    5.7537   -6.4302   -4.9115 O   0  0  0  0  0  0
    3.6336   -5.8616   -5.4341 O   0  0  0  0  0  0
    4.1908   -4.1576   -1.7854 C   0  0  0  0  0  0
    3.3368   -4.1837   -0.9121 O   0  0  0  0  0  0
    4.4771   -3.0476   -2.4794 O   0  0  0  0  0  0
    2.7138   -8.6850    2.0717 O   0  0  0  0  0  0
    1.5348   -8.0083    2.3365 C   0  0  0  0  0  0
    0.4601   -8.2459    1.8008 O   0  0  0  0  0  0
    1.7169   -6.9089    3.3912 C   0  0  0  0  0  0
    2.5980   -7.2897    4.6213 C   0  0  0  0  0  0
    2.2343   -8.5641    5.4049 C   0  0  0  0  0  0
    0.8112   -8.5723    5.8835 C   0  0  0  0  0  0
   -0.0546   -7.7702    5.5615 O   0  0  0  0  0  0
    0.5561   -9.5919    6.7175 O   0  0  0  0  0  0
    4.1033   -7.3491    4.3335 C   0  0  0  0  0  0
    4.8919   -7.9235    5.0580 O   0  0  0  0  0  0
    4.4902   -6.8101    3.1583 O   0  0  0  0  0  0
   -0.0514   -9.0853  -13.4263 H   0  0  0  0  0  0
   -1.0819   -9.2961  -12.1956 H   0  0  0  0  0  0
   -0.4937   -6.1892  -12.4554 H   0  0  0  0  0  0
   -0.0533   -9.1270   -7.4822 H   0  0  0  0  0  0
    0.9186   -7.6366   -6.2737 H   0  0  0  0  0  0
    3.9206   -5.7710   -6.3630 H   0  0  0  0  0  0
    5.2140   -3.1503   -3.1315 H   0  0  0  0  0  0
   -0.3715   -9.4854    7.0166 H   0  0  0  0  0  0
    3.8829   -6.1320    2.7875 H   0  0  0  0  0  0
  1  2  1  0  0  0
  2  3  1  0  0  0
  3  4  1  0  0  0
  4  5  1  0  0  0
  5  6  1  0  0  0
  5  7  1  0  0  0
  7  8  1  0  0  0
  7 39  1  0  0  0
  8  9  1  0  0  0
  8 27  1  0  0  0
  9 10  1  0  0  0
 10 11  1  0  0  0
 10 12  1  0  0  0
 12 13  1  0  0  0
 13 14  1  0  0  0
 13 26  1  0  0  0
 14 15  1  0  0  0
 15 16  1  0  0  0
 16 17  1  0  0  0
 17 18  1  0  0  0
 18 19  1  0  0  0
 18 25  1  0  0  0
 19 20  1  0  0  0
 20 21  1  0  0  0
 20 24  1  0  0  0
 21 22  1  0  0  0
 21 23  1  0  0  0
 23 51  1  0  0  0
 23 52  1  0  0  0
 24 53  1  0  0  0
 25 54  1  0  0  0
 26 55  1  0  0  0
 27 28  1  0  0  0
 28 29  2  0  0  0
 28 30  1  0  0  0
 30 31  1  0  0  0
 31 32  1  0  0  0
 31 36  1  0  0  0
 32 33  1  0  0  0
 33 34  2  0  0  0
 33 35  1  0  0  0
 35 56  1  0  0  0
 36 37  2  0  0  0
 36 38  1  0  0  0
 38 57  1  0  0  0
 39 40  1  0  0  0
 40 41  2  0  0  0
 40 42  1  0  0  0
 42 43  1  0  0  0
 43 44  1  0  0  0
 43 48  1  0  0  0
 44 45  1  0  0  0
 45 46  2  0  0  0
 45 47  1  0  0  0
 47 58  1  0  0  0
 48 49  2  0  0  0
 48 50  1  0  0  0
 50 59  1  0  0  0
M  END
>  <AUTHOR>
    GENERATED BY OPEN BABEL 2.4.1

>  <CHROM.1>
125.65998938,-167.61810761,155.02142154,-169.59659781,100.49832527,-80.32137309
-130.99828898,-85.93077760,-178.43682059,151.01103848,31.86398718,169.74240450
139.48503726,64.18184132,-164.66062860,74.31996932,-110.71402265,174.06753389
1.06897629,36.45299555,-74.42982799,170.37605578,105.67446530,15.06156921
74.93363268,-52.17161930,-134.36876453,-43.97509003,54.28099224,177.70343837
-4.75646680,23.42207200,-42.47524799,-53.30405260,-54.99522052,-161.95771822
9.55099501,176.70539870,24.07662880,1.88995410,-7.96264431,-1.86238799,1.23916215
0.90926345,1.90451903

>  <COMPND>
    UNNAMED

>  <MASTER>
        0    0    0    0    0    0    0    0  109    0  109    0

>  <Name>
FB1.pdb

>  <RI>
0

>  <Rbt.Current_Directory>
/home/fc/tossine/FB1_39/p3/1_clust05

>  <Rbt.Executable>
rbdock/0.1.0

>  <Rbt.Library>
librxdock.so/0.1.0

>  <Rbt.Parameter_File>
/cluster/rxdock/data/scripts/dock.prm

>  <Rbt.Receptor>
rx_0.prm

>  <SCORE>
61.8619

>  <SCORE.INTER>
18.6479

>  <SCORE.INTER.CONST>
1

>  <SCORE.INTER.POLAR>
-1.24637

>  <SCORE.INTER.REPUL>
0.309268

>  <SCORE.INTER.ROT>
32

>  <SCORE.INTER.VDW>
-16.0608

>  <SCORE.INTER.norm>
0.372958

>  <SCORE.INTRA>
35.1638

>  <SCORE.INTRA.DIHEDRAL>
34.1569

>  <SCORE.INTRA.DIHEDRAL.0>
47.3121

>  <SCORE.INTRA.POLAR>
1.31248

>  <SCORE.INTRA.POLAR.0>
-1.47808

>  <SCORE.INTRA.REPUL>
0.165662

>  <SCORE.INTRA.REPUL.0>
0

>  <SCORE.INTRA.VDW>
12.7946

>  <SCORE.INTRA.VDW.0>
-2.78316

>  <SCORE.INTRA.norm>
0.703276

>  <SCORE.RESTR>
8.05027

>  <SCORE.RESTR.CAVITY>
8.05027

>  <SCORE.RESTR.norm>
0.161005

>  <SCORE.SYSTEM>
0

>  <SCORE.SYSTEM.CONST>
0

>  <SCORE.SYSTEM.DIHEDRAL>
0

>  <SCORE.SYSTEM.norm>
0

>  <SCORE.heavy>
50

>  <SCORE.norm>
1.23724

$$$$
