FB1.pdb
  RxDock  10072009563D
librxdock.so/0.1.0
 59 58  0  0  0  0  0  0  0  0999 V2000
   -1.7332  -12.8117    3.6130 C   0  0  0  0  0  0
   -0.5387  -12.4499    2.7335 C   0  0  0  0  0  0
    0.4345  -13.6305    2.5809 C   0  0  0  0  0  0
    1.5892  -13.3544    1.5860 C   0  0  0  0  0  0
    2.5912  -12.2322    2.0302 C   0  0  0  0  0  0
    4.0082  -12.6318    1.5579 C   0  0  0  0  0  0
    2.2017  -10.7888    1.4985 C   0  0  0  0  0  0
    2.0206  -10.6231   -0.0845 C   0  0  0  0  0  0
    0.6501  -10.7961   -0.8718 C   0  0  0  0  0  0
    0.7018  -10.3775   -2.4666 C   0  0  0  0  0  0
    1.2935  -11.5445   -3.2554 C   0  0  0  0  0  0
   -0.6835   -9.9360   -3.1229 C   0  0  0  0  0  0
   -0.8194   -8.8360   -4.3020 C   0  0  0  0  0  0
   -0.0751   -8.9785   -5.6738 C   0  0  0  0  0  0
   -0.3272   -7.8665   -6.7914 C   0  0  0  0  0  0
   -0.2054   -8.1243   -8.3449 C   0  0  0  0  0  0
    1.1233   -8.6752   -8.9266 C   0  0  0  0  0  0
    1.6428   -8.0046  -10.2570 C   0  0  0  0  0  0
    2.3340   -6.6437  -10.1068 C   0  0  0  0  0  0
    2.6431   -5.8277  -11.3940 C   0  0  0  0  0  0
    1.5380   -5.5911  -12.4655 C   0  0  0  0  0  0
    2.0150   -5.3787  -13.8954 C   0  0  0  0  0  0
    0.5112   -6.6487  -12.4038 N   0  0  0  0  0  0
    2.9914   -4.5036  -10.9151 O   0  0  0  0  0  0
    2.5567   -8.9125  -10.8815 O   0  0  0  0  0  0
   -2.2181   -8.8209   -4.6338 O   0  0  0  0  0  0
    2.4506   -9.2718   -0.4034 O   0  0  0  0  0  0
    3.6447   -8.8686    0.1035 C   0  0  0  0  0  0
    4.4610   -9.5719    0.6677 O   0  0  0  0  0  0
    3.8413   -7.4175   -0.2383 C   0  0  0  0  0  0
    4.7567   -6.6940    0.7622 C   0  0  0  0  0  0
    4.6362   -5.1673    0.6729 C   0  0  0  0  0  0
    5.3228   -4.6377   -0.5645 C   0  0  0  0  0  0
    5.2909   -5.2028   -1.6523 O   0  0  0  0  0  0
    5.9738   -3.4828   -0.3615 O   0  0  0  0  0  0
    4.3236   -7.1747    2.1541 C   0  0  0  0  0  0
    3.3841   -6.6884    2.7651 O   0  0  0  0  0  0
    5.0936   -8.1430    2.6692 O   0  0  0  0  0  0
    1.0489  -10.2347    2.2494 O   0  0  0  0  0  0
    1.0571   -8.8872    2.5693 C   0  0  0  0  0  0
    0.5587   -8.0053    1.8821 O   0  0  0  0  0  0
    1.7681   -8.6074    3.8999 C   0  0  0  0  0  0
    0.9712   -7.7420    4.9249 C   0  0  0  0  0  0
    1.5041   -7.6549    6.3667 C   0  0  0  0  0  0
    1.6725   -9.0001    7.0121 C   0  0  0  0  0  0
    1.0637   -9.4014    7.9944 O   0  0  0  0  0  0
    2.5754   -9.7639    6.3784 O   0  0  0  0  0  0
    0.6828   -6.3088    4.4612 C   0  0  0  0  0  0
   -0.4137   -5.9447    4.0845 O   0  0  0  0  0  0
    1.7051   -5.4386    4.5986 O   0  0  0  0  0  0
   -0.1904   -6.4754  -13.1222 H   0  0  0  0  0  0
    0.0077   -6.5638  -11.5179 H   0  0  0  0  0  0
    2.1300   -4.0523  -10.7896 H   0  0  0  0  0  0
    3.0836   -9.3424  -10.1829 H   0  0  0  0  0  0
   -2.7131   -8.5636   -3.8381 H   0  0  0  0  0  0
    6.3705   -3.0824   -1.1589 H   0  0  0  0  0  0
    5.5503   -8.7056    1.9957 H   0  0  0  0  0  0
    2.6309  -10.6062    6.8771 H   0  0  0  0  0  0
    1.5024   -4.5100    4.3481 H   0  0  0  0  0  0
  1  2  1  0  0  0
  2  3  1  0  0  0
  3  4  1  0  0  0
  4  5  1  0  0  0
  5  6  1  0  0  0
  5  7  1  0  0  0
  7  8  1  0  0  0
  7 39  1  0  0  0
  8  9  1  0  0  0
  8 27  1  0  0  0
  9 10  1  0  0  0
 10 11  1  0  0  0
 10 12  1  0  0  0
 12 13  1  0  0  0
 13 14  1  0  0  0
 13 26  1  0  0  0
 14 15  1  0  0  0
 15 16  1  0  0  0
 16 17  1  0  0  0
 17 18  1  0  0  0
 18 19  1  0  0  0
 18 25  1  0  0  0
 19 20  1  0  0  0
 20 21  1  0  0  0
 20 24  1  0  0  0
 21 22  1  0  0  0
 21 23  1  0  0  0
 23 51  1  0  0  0
 23 52  1  0  0  0
 24 53  1  0  0  0
 25 54  1  0  0  0
 26 55  1  0  0  0
 27 28  1  0  0  0
 28 29  2  0  0  0
 28 30  1  0  0  0
 30 31  1  0  0  0
 31 32  1  0  0  0
 31 36  1  0  0  0
 32 33  1  0  0  0
 33 34  2  0  0  0
 33 35  1  0  0  0
 35 56  1  0  0  0
 36 37  2  0  0  0
 36 38  1  0  0  0
 38 57  1  0  0  0
 39 40  1  0  0  0
 40 41  2  0  0  0
 40 42  1  0  0  0
 42 43  1  0  0  0
 43 44  1  0  0  0
 43 48  1  0  0  0
 44 45  1  0  0  0
 45 46  2  0  0  0
 45 47  1  0  0  0
 47 58  1  0  0  0
 48 49  2  0  0  0
 48 50  1  0  0  0
 50 59  1  0  0  0
M  END
>  <AUTHOR>
    GENERATED BY OPEN BABEL 2.4.1

>  <CHROM.1>
174.35840744,65.77287193,144.50662961,-55.85199595,91.39642495,140.66334818
172.33209172,48.71838194,81.31639865,147.54214960,57.24339633,177.46881010
60.43298742,-152.49497282,-56.47256228,-136.54925714,78.20959455,-169.59262778
-38.22166781,49.41554928,-152.94407487,-83.69609956,-179.25298292,9.09754762
153.61227753,-163.13393581,-74.10258068,-83.22029725,38.92144758,-175.59319968
-26.69317745,92.43469411,-128.90487768,168.34936581,-55.91919772,104.98921839
-116.46736006,178.83735806,-176.71267704,1.88032987,-8.43440472,-1.26465989
1.53277839,0.98244668,1.75321800

>  <COMPND>
    UNNAMED

>  <MASTER>
        0    0    0    0    0    0    0    0  109    0  109    0

>  <Name>
FB1.pdb

>  <RI>
0

>  <Rbt.Current_Directory>
/home/fc/tossine/FB1_39/p3/1_clust05

>  <Rbt.Executable>
rbdock/0.1.0

>  <Rbt.Library>
librxdock.so/0.1.0

>  <Rbt.Parameter_File>
/cluster/rxdock/data/scripts/dock.prm

>  <Rbt.Receptor>
rx_4.prm

>  <SCORE>
34.0323

>  <SCORE.INTER>
8.67423

>  <SCORE.INTER.CONST>
1

>  <SCORE.INTER.POLAR>
-2.01668

>  <SCORE.INTER.REPUL>
0.504102

>  <SCORE.INTER.ROT>
32

>  <SCORE.INTER.VDW>
-24.3896

>  <SCORE.INTER.norm>
0.173485

>  <SCORE.INTRA>
17.6807

>  <SCORE.INTRA.DIHEDRAL>
31.7104

>  <SCORE.INTRA.DIHEDRAL.0>
47.3121

>  <SCORE.INTRA.POLAR>
1.19269

>  <SCORE.INTRA.POLAR.0>
-1.47808

>  <SCORE.INTRA.REPUL>
0

>  <SCORE.INTRA.REPUL.0>
0

>  <SCORE.INTRA.VDW>
-2.22967

>  <SCORE.INTRA.VDW.0>
-2.78316

>  <SCORE.INTRA.norm>
0.353614

>  <SCORE.RESTR>
7.67738

>  <SCORE.RESTR.CAVITY>
7.67738

>  <SCORE.RESTR.norm>
0.153548

>  <SCORE.SYSTEM>
0

>  <SCORE.SYSTEM.CONST>
0

>  <SCORE.SYSTEM.DIHEDRAL>
0

>  <SCORE.SYSTEM.norm>
0

>  <SCORE.heavy>
50

>  <SCORE.norm>
0.680646

$$$$
