FB1.pdb
  RxDock  10072008143D
librxdock.so/0.1.0
 59 58  0  0  0  0  0  0  0  0999 V2000
    3.8490   -2.9818   -0.0434 C   0  0  0  0  0  0
    3.8632   -3.9322    1.1516 C   0  0  0  0  0  0
    4.4903   -5.2894    0.7923 C   0  0  0  0  0  0
    3.5423   -6.2145   -0.0108 C   0  0  0  0  0  0
    2.4099   -6.8956    0.8344 C   0  0  0  0  0  0
    1.3494   -5.8242    1.1780 C   0  0  0  0  0  0
    1.7441   -8.1422    0.1130 C   0  0  0  0  0  0
    1.9396   -8.2525   -1.4731 C   0  0  0  0  0  0
    1.3891   -9.4346   -2.3829 C   0  0  0  0  0  0
    0.9924  -10.8151   -1.5717 C   0  0  0  0  0  0
   -0.5304  -10.9308   -1.5268 C   0  0  0  0  0  0
    1.6151  -12.1689   -2.1411 C   0  0  0  0  0  0
    2.2035  -13.3576   -1.2141 C   0  0  0  0  0  0
    2.2919  -13.2407    0.3462 C   0  0  0  0  0  0
    2.6067  -14.5605    1.1879 C   0  0  0  0  0  0
    3.8358  -14.7178    2.1673 C   0  0  0  0  0  0
    5.2417  -15.0241    1.5867 C   0  0  0  0  0  0
    5.5392  -16.5282    1.2150 C   0  0  0  0  0  0
    5.9559  -17.4444    2.3723 C   0  0  0  0  0  0
    7.4313  -17.3906    2.8609 C   0  0  0  0  0  0
    8.5904  -17.8558    1.9307 C   0  0  0  0  0  0
    9.9926  -17.8116    2.5216 C   0  0  0  0  0  0
    8.3022  -19.1834    1.3556 N   0  0  0  0  0  0
    7.6868  -15.9837    3.1044 O   0  0  0  0  0  0
    4.3645  -17.0729    0.6041 O   0  0  0  0  0  0
    1.3379  -14.4792   -1.4579 O   0  0  0  0  0  0
    1.3434   -7.0544   -2.0403 O   0  0  0  0  0  0
    2.0146   -6.4534   -3.0569 C   0  0  0  0  0  0
    2.8848   -5.6110   -2.9457 O   0  0  0  0  0  0
    1.5743   -7.0774   -4.3524 C   0  0  0  0  0  0
    0.1412   -6.6810   -4.7416 C   0  0  0  0  0  0
   -0.4157   -7.5363   -5.8869 C   0  0  0  0  0  0
   -1.7717   -8.1025   -5.5348 C   0  0  0  0  0  0
   -2.7862   -7.4210   -5.4348 O   0  0  0  0  0  0
   -1.7628   -9.4298   -5.3422 O   0  0  0  0  0  0
   -0.7085   -6.8771   -3.4785 C   0  0  0  0  0  0
   -1.1209   -5.9477   -2.8011 O   0  0  0  0  0  0
   -0.9216   -8.1584   -3.1487 O   0  0  0  0  0  0
    2.0905   -9.4083    0.8035 O   0  0  0  0  0  0
    3.3906   -9.8762    0.7091 C   0  0  0  0  0  0
    3.8718  -10.3990   -0.2876 O   0  0  0  0  0  0
    4.1819   -9.6674    2.0070 C   0  0  0  0  0  0
    3.6957   -8.4960    2.9158 C   0  0  0  0  0  0
    2.4881   -8.7484    3.8368 C   0  0  0  0  0  0
    1.6887   -7.5069    4.1093 C   0  0  0  0  0  0
    0.4702   -7.4157    4.0505 O   0  0  0  0  0  0
    2.4603   -6.4655    4.4561 O   0  0  0  0  0  0
    4.7943   -7.8567    3.7741 C   0  0  0  0  0  0
    4.6556   -7.6253    4.9590 O   0  0  0  0  0  0
    5.9758   -7.6616    3.1519 O   0  0  0  0  0  0
    7.2947  -19.2867    1.2420 H   0  0  0  0  0  0
    8.5651  -19.8987    2.0372 H   0  0  0  0  0  0
    7.0667  -15.7413    3.8241 H   0  0  0  0  0  0
    4.5807  -17.9623    0.2685 H   0  0  0  0  0  0
    1.4973  -14.7905   -2.3646 H   0  0  0  0  0  0
   -2.4998   -9.7776   -4.8043 H   0  0  0  0  0  0
   -1.5337   -8.2882   -2.3824 H   0  0  0  0  0  0
    1.8612   -5.6983    4.5738 H   0  0  0  0  0  0
    6.0414   -8.0407    2.2474 H   0  0  0  0  0  0
  1  2  1  0  0  0
  2  3  1  0  0  0
  3  4  1  0  0  0
  4  5  1  0  0  0
  5  6  1  0  0  0
  5  7  1  0  0  0
  7  8  1  0  0  0
  7 39  1  0  0  0
  8  9  1  0  0  0
  8 27  1  0  0  0
  9 10  1  0  0  0
 10 11  1  0  0  0
 10 12  1  0  0  0
 12 13  1  0  0  0
 13 14  1  0  0  0
 13 26  1  0  0  0
 14 15  1  0  0  0
 15 16  1  0  0  0
 16 17  1  0  0  0
 17 18  1  0  0  0
 18 19  1  0  0  0
 18 25  1  0  0  0
 19 20  1  0  0  0
 20 21  1  0  0  0
 20 24  1  0  0  0
 21 22  1  0  0  0
 21 23  1  0  0  0
 23 51  1  0  0  0
 23 52  1  0  0  0
 24 53  1  0  0  0
 25 54  1  0  0  0
 26 55  1  0  0  0
 27 28  1  0  0  0
 28 29  2  0  0  0
 28 30  1  0  0  0
 30 31  1  0  0  0
 31 32  1  0  0  0
 31 36  1  0  0  0
 32 33  1  0  0  0
 33 34  2  0  0  0
 33 35  1  0  0  0
 35 56  1  0  0  0
 36 37  2  0  0  0
 36 38  1  0  0  0
 38 57  1  0  0  0
 39 40  1  0  0  0
 40 41  2  0  0  0
 40 42  1  0  0  0
 42 43  1  0  0  0
 43 44  1  0  0  0
 43 48  1  0  0  0
 44 45  1  0  0  0
 45 46  2  0  0  0
 45 47  1  0  0  0
 47 58  1  0  0  0
 48 49  2  0  0  0
 48 50  1  0  0  0
 50 59  1  0  0  0
M  END
>  <AUTHOR>
    GENERATED BY OPEN BABEL 2.4.1

>  <CHROM.1>
-77.29859256,-75.71215271,73.69359513,-19.08304672,178.40662844,-70.83338177
-18.42269985,138.82964233,106.91908660,139.11195948,-3.84571939,167.87956304
69.68148299,122.12017152,-79.37040779,-80.77425704,-81.65940830,-79.91858077
172.71917764,-65.78753615,-177.81677257,63.02986981,31.11665595,-87.85711425
71.45049361,-167.80567562,129.05514850,105.88498127,69.66670175,158.00392886
-174.88887295,-74.49363006,-25.64301159,80.97502506,-150.71851520,-132.98213064
133.26069618,177.52844659,-6.60874595,2.80063664,-10.08609164,-0.00357134
-2.47814682,0.91226346,-2.76716910

>  <COMPND>
    UNNAMED

>  <MASTER>
        0    0    0    0    0    0    0    0  109    0  109    0

>  <Name>
FB1.pdb

>  <RI>
0

>  <Rbt.Current_Directory>
/home/fc/tossine/FB1_39/p3/1_clust05

>  <Rbt.Executable>
rbdock/0.1.0

>  <Rbt.Library>
librxdock.so/0.1.0

>  <Rbt.Parameter_File>
/cluster/rxdock/data/scripts/dock.prm

>  <Rbt.Receptor>
rx_1.prm

>  <SCORE>
63.4371

>  <SCORE.INTER>
20.6712

>  <SCORE.INTER.CONST>
1

>  <SCORE.INTER.POLAR>
-1.90373

>  <SCORE.INTER.REPUL>
2.63352

>  <SCORE.INTER.ROT>
32

>  <SCORE.INTER.VDW>
-23.4237

>  <SCORE.INTER.norm>
0.413425

>  <SCORE.INTRA>
39.4804

>  <SCORE.INTRA.DIHEDRAL>
69.9755

>  <SCORE.INTRA.DIHEDRAL.0>
47.3121

>  <SCORE.INTRA.POLAR>
1.47808

>  <SCORE.INTRA.POLAR.0>
-1.47808

>  <SCORE.INTRA.REPUL>
0

>  <SCORE.INTRA.REPUL.0>
0

>  <SCORE.INTRA.VDW>
-0.532825

>  <SCORE.INTRA.VDW.0>
-2.78316

>  <SCORE.INTRA.norm>
0.789608

>  <SCORE.RESTR>
3.28543

>  <SCORE.RESTR.CAVITY>
3.28543

>  <SCORE.RESTR.norm>
0.0657086

>  <SCORE.SYSTEM>
0

>  <SCORE.SYSTEM.CONST>
0

>  <SCORE.SYSTEM.DIHEDRAL>
0

>  <SCORE.SYSTEM.norm>
0

>  <SCORE.heavy>
50

>  <SCORE.norm>
1.26874

$$$$
