FB1.pdb
  RxDock  10072007313D
librxdock.so/0.1.0
 59 58  0  0  0  0  0  0  0  0999 V2000
    0.8748   -5.7088    8.0577 C   0  0  0  0  0  0
    1.2863   -7.0984    8.5383 C   0  0  0  0  0  0
    0.9439   -8.1832    7.5038 C   0  0  0  0  0  0
    1.6957   -8.0143    6.1599 C   0  0  0  0  0  0
    1.3910   -9.1183    5.0881 C   0  0  0  0  0  0
   -0.1082   -9.0363    4.7193 C   0  0  0  0  0  0
    2.3009   -9.0112    3.7925 C   0  0  0  0  0  0
    2.1598  -10.1817    2.7079 C   0  0  0  0  0  0
    2.1638  -11.7377    3.0351 C   0  0  0  0  0  0
    3.6572  -12.4361    3.0941 C   0  0  0  0  0  0
    3.5775  -13.6773    3.9814 C   0  0  0  0  0  0
    4.3083  -12.8232    1.6902 C   0  0  0  0  0  0
    3.7125  -13.9501    0.6933 C   0  0  0  0  0  0
    3.7949  -15.4823    1.0123 C   0  0  0  0  0  0
    5.1936  -16.0810    1.4963 C   0  0  0  0  0  0
    5.6759  -16.1083    3.0000 C   0  0  0  0  0  0
    7.0271  -16.7821    3.3575 C   0  0  0  0  0  0
    8.3257  -15.9087    3.1574 C   0  0  0  0  0  0
    9.4536  -16.5465    2.3367 C   0  0  0  0  0  0
   10.8616  -16.6655    2.9862 C   0  0  0  0  0  0
   11.9094  -15.5255    2.8185 C   0  0  0  0  0  0
   11.3727  -14.1014    2.8543 C   0  0  0  0  0  0
   13.0246  -15.6928    3.7696 N   0  0  0  0  0  0
   10.6043  -16.7322    4.4120 O   0  0  0  0  0  0
    7.9407  -14.6830    2.5257 O   0  0  0  0  0  0
    2.3072  -13.6602    0.6055 O   0  0  0  0  0  0
    0.8921   -9.9593    2.0327 O   0  0  0  0  0  0
    0.9393   -9.3659    0.8117 C   0  0  0  0  0  0
    1.2498   -8.2121    0.5841 O   0  0  0  0  0  0
    0.6403  -10.4044   -0.2341 C   0  0  0  0  0  0
   -0.3846   -9.9192   -1.2717 C   0  0  0  0  0  0
    0.0942   -8.6786   -2.0366 C   0  0  0  0  0  0
   -1.0334   -8.0567   -2.8271 C   0  0  0  0  0  0
   -1.4512   -6.9202   -2.6336 O   0  0  0  0  0  0
   -1.5374   -8.8686   -3.7682 O   0  0  0  0  0  0
   -0.5873  -11.0897   -2.2437 C   0  0  0  0  0  0
    0.2485  -11.4230   -3.0699 O   0  0  0  0  0  0
   -1.7819  -11.6893   -2.1459 O   0  0  0  0  0  0
    2.1962   -7.6671    3.1743 O   0  0  0  0  0  0
    2.9431   -6.6333    3.7142 C   0  0  0  0  0  0
    3.5893   -6.7089    4.7510 O   0  0  0  0  0  0
    2.8771   -5.3587    2.8626 C   0  0  0  0  0  0
    1.5785   -4.5076    3.0168 C   0  0  0  0  0  0
    1.2306   -3.5095    1.8972 C   0  0  0  0  0  0
    1.2780   -4.1240    0.5281 C   0  0  0  0  0  0
    2.1147   -4.9246    0.1338 O   0  0  0  0  0  0
    0.2672   -3.7144   -0.2535 O   0  0  0  0  0  0
    0.3122   -5.3230    3.3061 C   0  0  0  0  0  0
   -0.2457   -5.3154    4.3857 O   0  0  0  0  0  0
   -0.2122   -5.9743    2.2468 O   0  0  0  0  0  0
   13.8264  -16.0859    3.2785 H   0  0  0  0  0  0
   12.7634  -16.4025    4.4578 H   0  0  0  0  0  0
   10.3096  -15.8284    4.6521 H   0  0  0  0  0  0
    7.3758  -14.1858    3.1455 H   0  0  0  0  0  0
    2.2080  -12.7399    0.3091 H   0  0  0  0  0  0
   -2.3811   -8.5755   -4.1630 H   0  0  0  0  0  0
   -2.2969  -11.7175   -2.9901 H   0  0  0  0  0  0
    0.3896   -4.1502   -1.1232 H   0  0  0  0  0  0
   -1.0299   -6.4874    2.4324 H   0  0  0  0  0  0
  1  2  1  0  0  0
  2  3  1  0  0  0
  3  4  1  0  0  0
  4  5  1  0  0  0
  5  6  1  0  0  0
  5  7  1  0  0  0
  7  8  1  0  0  0
  7 39  1  0  0  0
  8  9  1  0  0  0
  8 27  1  0  0  0
  9 10  1  0  0  0
 10 11  1  0  0  0
 10 12  1  0  0  0
 12 13  1  0  0  0
 13 14  1  0  0  0
 13 26  1  0  0  0
 14 15  1  0  0  0
 15 16  1  0  0  0
 16 17  1  0  0  0
 17 18  1  0  0  0
 18 19  1  0  0  0
 18 25  1  0  0  0
 19 20  1  0  0  0
 20 21  1  0  0  0
 20 24  1  0  0  0
 21 22  1  0  0  0
 21 23  1  0  0  0
 23 51  1  0  0  0
 23 52  1  0  0  0
 24 53  1  0  0  0
 25 54  1  0  0  0
 26 55  1  0  0  0
 27 28  1  0  0  0
 28 29  2  0  0  0
 28 30  1  0  0  0
 30 31  1  0  0  0
 31 32  1  0  0  0
 31 36  1  0  0  0
 32 33  1  0  0  0
 33 34  2  0  0  0
 33 35  1  0  0  0
 35 56  1  0  0  0
 36 37  2  0  0  0
 36 38  1  0  0  0
 38 57  1  0  0  0
 39 40  1  0  0  0
 40 41  2  0  0  0
 40 42  1  0  0  0
 42 43  1  0  0  0
 43 44  1  0  0  0
 43 48  1  0  0  0
 44 45  1  0  0  0
 45 46  2  0  0  0
 45 47  1  0  0  0
 47 58  1  0  0  0
 48 49  2  0  0  0
 48 50  1  0  0  0
 50 59  1  0  0  0
M  END
>  <AUTHOR>
    GENERATED BY OPEN BABEL 2.4.1

>  <CHROM.1>
62.81733529,178.94620791,63.04151695,174.16691218,-47.42666006,80.84702769
-87.01216211,100.73860336,155.22307205,-65.54316436,-71.55531454,-47.46037030
56.03120885,86.83641236,176.92728045,82.67329500,-128.53650710,-123.86839558
65.72663405,-90.53176817,38.07948180,-71.04382095,101.90110312,-68.85263942
133.23686314,60.39871593,-167.94632331,-72.98145396,118.01288774,167.47691375
123.68951319,-7.60456910,78.34136729,-160.11942713,49.92604728,108.90862729
-40.05839159,178.96698972,-179.28847717,3.00416836,-10.26622416,2.09778956
-2.74560535,0.74068930,-2.29893450

>  <COMPND>
    UNNAMED

>  <MASTER>
        0    0    0    0    0    0    0    0  109    0  109    0

>  <Name>
FB1.pdb

>  <RI>
0

>  <Rbt.Current_Directory>
/home/fc/tossine/FB1_39/p3/1_clust05

>  <Rbt.Executable>
rbdock/0.1.0

>  <Rbt.Library>
librxdock.so/0.1.0

>  <Rbt.Parameter_File>
/cluster/rxdock/data/scripts/dock.prm

>  <Rbt.Receptor>
rx_0.prm

>  <SCORE>
37.5989

>  <SCORE.INTER>
10.0829

>  <SCORE.INTER.CONST>
1

>  <SCORE.INTER.POLAR>
-3.11662

>  <SCORE.INTER.REPUL>
0.606364

>  <SCORE.INTER.ROT>
32

>  <SCORE.INTER.VDW>
-19.7524

>  <SCORE.INTER.norm>
0.201657

>  <SCORE.INTRA>
24.0202

>  <SCORE.INTRA.DIHEDRAL>
43.4395

>  <SCORE.INTRA.DIHEDRAL.0>
47.3121

>  <SCORE.INTRA.POLAR>
1.4471

>  <SCORE.INTRA.POLAR.0>
-1.47808

>  <SCORE.INTRA.REPUL>
0

>  <SCORE.INTRA.REPUL.0>
0

>  <SCORE.INTRA.VDW>
-2.6197

>  <SCORE.INTRA.VDW.0>
-2.78316

>  <SCORE.INTRA.norm>
0.480404

>  <SCORE.RESTR>
3.49578

>  <SCORE.RESTR.CAVITY>
3.49578

>  <SCORE.RESTR.norm>
0.0699156

>  <SCORE.SYSTEM>
0

>  <SCORE.SYSTEM.CONST>
0

>  <SCORE.SYSTEM.DIHEDRAL>
0

>  <SCORE.SYSTEM.norm>
0

>  <SCORE.heavy>
50

>  <SCORE.norm>
0.751977

$$$$
