FB1.pdb
  RxDock  10072008443D
librxdock.so/0.1.0
 59 58  0  0  0  0  0  0  0  0999 V2000
    0.0722   -7.0402    3.9588 C   0  0  0  0  0  0
    0.3471   -7.8470    5.2256 C   0  0  0  0  0  0
    1.8540   -8.0459    5.4582 C   0  0  0  0  0  0
    2.4919   -9.0937    4.5122 C   0  0  0  0  0  0
    2.4218   -8.7368    2.9863 C   0  0  0  0  0  0
    3.8090   -8.2155    2.5454 C   0  0  0  0  0  0
    1.9542   -9.9477    2.0736 C   0  0  0  0  0  0
    1.8327   -9.6665    0.5012 C   0  0  0  0  0  0
    0.8914  -10.4650   -0.5010 C   0  0  0  0  0  0
    1.6659  -11.1738   -1.7735 C   0  0  0  0  0  0
    2.0187  -12.6094   -1.3880 C   0  0  0  0  0  0
    0.8831  -11.1701   -3.1635 C   0  0  0  0  0  0
    0.3487   -9.8323   -3.9006 C   0  0  0  0  0  0
   -1.1712   -9.4543   -3.9569 C   0  0  0  0  0  0
   -1.8376   -9.2068   -5.3865 C   0  0  0  0  0  0
   -1.4040   -8.0605   -6.3827 C   0  0  0  0  0  0
   -2.0943   -7.9495   -7.7678 C   0  0  0  0  0  0
   -1.6889   -9.0271   -8.8465 C   0  0  0  0  0  0
   -0.2693   -8.9170   -9.4167 C   0  0  0  0  0  0
   -0.1047   -8.5618  -10.9217 C   0  0  0  0  0  0
    1.2737   -8.0986  -11.4793 C   0  0  0  0  0  0
    1.3008   -6.7495  -12.1839 C   0  0  0  0  0  0
    2.3136   -8.1692  -10.4352 N   0  0  0  0  0  0
   -0.3987   -9.7958  -11.6249 O   0  0  0  0  0  0
   -1.8427  -10.3224   -8.2563 O   0  0  0  0  0  0
    0.9795   -8.7472   -3.1999 O   0  0  0  0  0  0
    1.4091   -8.2827    0.3674 O   0  0  0  0  0  0
    2.1933   -7.4676   -0.3849 C   0  0  0  0  0  0
    3.1748   -7.8004   -1.0215 O   0  0  0  0  0  0
    1.5870   -6.0914   -0.3853 C   0  0  0  0  0  0
    2.5545   -5.0202   -0.9133 C   0  0  0  0  0  0
    2.7668   -5.1148   -2.4297 C   0  0  0  0  0  0
    3.9581   -4.2938   -2.8656 C   0  0  0  0  0  0
    4.4397   -3.3877   -2.1941 O   0  0  0  0  0  0
    4.4445   -4.6518   -4.0631 O   0  0  0  0  0  0
    1.9231   -3.6679   -0.5548 C   0  0  0  0  0  0
    2.4843   -2.8323    0.1376 O   0  0  0  0  0  0
    0.6795   -3.4964   -1.0239 O   0  0  0  0  0  0
    2.7450  -11.1696    2.3588 O   0  0  0  0  0  0
    3.6847  -11.5788    1.4273 C   0  0  0  0  0  0
    4.1045  -10.8848    0.5106 O   0  0  0  0  0  0
    4.1557  -13.0193    1.6672 C   0  0  0  0  0  0
    3.8756  -13.5955    3.0899 C   0  0  0  0  0  0
    2.4166  -13.9076    3.4696 C   0  0  0  0  0  0
    1.7232  -14.7817    2.4648 C   0  0  0  0  0  0
    2.2689  -15.5850    1.7208 O   0  0  0  0  0  0
    0.3924  -14.6106    2.4675 O   0  0  0  0  0  0
    4.7121  -14.8281    3.4547 C   0  0  0  0  0  0
    4.8917  -15.7544    2.6889 O   0  0  0  0  0  0
    5.3319  -14.7740    4.6522 O   0  0  0  0  0  0
    2.0387   -7.5810   -9.6497 H   0  0  0  0  0  0
    3.1694   -7.7424  -10.7971 H   0  0  0  0  0  0
   -0.6989   -9.5081  -12.5129 H   0  0  0  0  0  0
   -2.7900  -10.4628   -8.0733 H   0  0  0  0  0  0
    1.8979   -8.6818   -3.5109 H   0  0  0  0  0  0
    5.1042   -4.0411   -4.4444 H   0  0  0  0  0  0
    0.3094   -4.2803   -1.5006 H   0  0  0  0  0  0
    0.0218  -15.2770    1.8510 H   0  0  0  0  0  0
    6.1146  -15.3612    4.7466 H   0  0  0  0  0  0
  1  2  1  0  0  0
  2  3  1  0  0  0
  3  4  1  0  0  0
  4  5  1  0  0  0
  5  6  1  0  0  0
  5  7  1  0  0  0
  7  8  1  0  0  0
  7 39  1  0  0  0
  8  9  1  0  0  0
  8 27  1  0  0  0
  9 10  1  0  0  0
 10 11  1  0  0  0
 10 12  1  0  0  0
 12 13  1  0  0  0
 13 14  1  0  0  0
 13 26  1  0  0  0
 14 15  1  0  0  0
 15 16  1  0  0  0
 16 17  1  0  0  0
 17 18  1  0  0  0
 18 19  1  0  0  0
 18 25  1  0  0  0
 19 20  1  0  0  0
 20 21  1  0  0  0
 20 24  1  0  0  0
 21 22  1  0  0  0
 21 23  1  0  0  0
 23 51  1  0  0  0
 23 52  1  0  0  0
 24 53  1  0  0  0
 25 54  1  0  0  0
 26 55  1  0  0  0
 27 28  1  0  0  0
 28 29  2  0  0  0
 28 30  1  0  0  0
 30 31  1  0  0  0
 31 32  1  0  0  0
 31 36  1  0  0  0
 32 33  1  0  0  0
 33 34  2  0  0  0
 33 35  1  0  0  0
 35 56  1  0  0  0
 36 37  2  0  0  0
 36 38  1  0  0  0
 38 57  1  0  0  0
 39 40  1  0  0  0
 40 41  2  0  0  0
 40 42  1  0  0  0
 42 43  1  0  0  0
 43 44  1  0  0  0
 43 48  1  0  0  0
 44 45  1  0  0  0
 45 46  2  0  0  0
 45 47  1  0  0  0
 47 58  1  0  0  0
 48 49  2  0  0  0
 48 50  1  0  0  0
 50 59  1  0  0  0
M  END
>  <AUTHOR>
    GENERATED BY OPEN BABEL 2.4.1

>  <CHROM.1>
-74.84389438,62.14816183,102.28224516,179.10905105,-154.76878498,-107.05670533
-122.88415395,123.98856595,92.77138315,56.87864259,-107.23341738,-124.37540561
78.04665941,-62.55246101,177.89674442,-74.01407423,-70.10527670,-114.14087425
65.41724413,165.06988486,-123.53818030,154.82785828,-58.61092393,4.54319422
166.12206258,72.28606473,-165.98694631,121.51874757,-19.59186090,169.28916814
3.03641351,14.90806930,-18.26519346,70.45982298,52.40179983,-44.39404835
26.79779558,-174.59188953,-157.38579534,1.75810536,-9.27009373,-1.61400685
-0.47689548,-1.33344138,-0.16338218

>  <COMPND>
    UNNAMED

>  <MASTER>
        0    0    0    0    0    0    0    0  109    0  109    0

>  <Name>
FB1.pdb

>  <RI>
0

>  <Rbt.Current_Directory>
/home/fc/tossine/FB1_39/p3/1_clust05

>  <Rbt.Executable>
rbdock/0.1.0

>  <Rbt.Library>
librxdock.so/0.1.0

>  <Rbt.Parameter_File>
/cluster/rxdock/data/scripts/dock.prm

>  <Rbt.Receptor>
rx_2.prm

>  <SCORE>
37.3115

>  <SCORE.INTER>
14.175

>  <SCORE.INTER.CONST>
1

>  <SCORE.INTER.POLAR>
-1.73314

>  <SCORE.INTER.REPUL>
0.453458

>  <SCORE.INTER.ROT>
32

>  <SCORE.INTER.VDW>
-19.5996

>  <SCORE.INTER.norm>
0.283501

>  <SCORE.INTRA>
17.3699

>  <SCORE.INTRA.DIHEDRAL>
30.1374

>  <SCORE.INTRA.DIHEDRAL.0>
47.3121

>  <SCORE.INTRA.POLAR>
1.47808

>  <SCORE.INTRA.POLAR.0>
-1.47808

>  <SCORE.INTRA.REPUL>
0

>  <SCORE.INTRA.REPUL.0>
0

>  <SCORE.INTRA.VDW>
-2.72428

>  <SCORE.INTRA.VDW.0>
-2.78316

>  <SCORE.INTRA.norm>
0.347398

>  <SCORE.RESTR>
5.76653

>  <SCORE.RESTR.CAVITY>
5.76653

>  <SCORE.RESTR.norm>
0.115331

>  <SCORE.SYSTEM>
0

>  <SCORE.SYSTEM.CONST>
0

>  <SCORE.SYSTEM.DIHEDRAL>
0

>  <SCORE.SYSTEM.norm>
0

>  <SCORE.heavy>
50

>  <SCORE.norm>
0.746229

$$$$
