FB1.pdb
  RxDock  10072008463D
librxdock.so/0.1.0
 59 58  0  0  0  0  0  0  0  0999 V2000
    4.4167   -6.2102    0.9928 C   0  0  0  0  0  0
    4.7808   -4.9415    0.2252 C   0  0  0  0  0  0
    3.9477   -3.7358    0.6902 C   0  0  0  0  0  0
    2.4299   -3.8942    0.4236 C   0  0  0  0  0  0
    1.6316   -4.6252    1.5588 C   0  0  0  0  0  0
    0.8458   -3.5625    2.3614 C   0  0  0  0  0  0
    0.6628   -5.7610    1.0211 C   0  0  0  0  0  0
    1.2702   -6.7858   -0.0500 C   0  0  0  0  0  0
    1.4909   -8.3413    0.1949 C   0  0  0  0  0  0
    2.5957   -9.0561   -0.7999 C   0  0  0  0  0  0
    3.8644   -9.3343    0.0045 C   0  0  0  0  0  0
    2.1223  -10.3925   -1.5313 C   0  0  0  0  0  0
    1.4470  -11.6520   -0.7723 C   0  0  0  0  0  0
    2.1318  -12.3664    0.4429 C   0  0  0  0  0  0
    2.0043  -13.9537    0.5584 C   0  0  0  0  0  0
    2.8205  -14.9774   -0.3251 C   0  0  0  0  0  0
    2.7182  -16.4965   -0.0263 C   0  0  0  0  0  0
    4.0605  -17.3222   -0.1008 C   0  0  0  0  0  0
    5.1978  -16.8542    0.8157 C   0  0  0  0  0  0
    4.8638  -16.5337    2.3003 C   0  0  0  0  0  0
    6.0035  -16.3411    3.3441 C   0  0  0  0  0  0
    7.1100  -15.3659    2.9669 C   0  0  0  0  0  0
    5.4499  -16.0218    4.6737 N   0  0  0  0  0  0
    4.1765  -15.2572    2.2551 O   0  0  0  0  0  0
    3.7578  -18.6864    0.2103 O   0  0  0  0  0  0
    0.2016  -11.1498   -0.2591 O   0  0  0  0  0  0
    0.3979   -6.7245   -1.2110 O   0  0  0  0  0  0
    0.3709   -5.5549   -1.9012 C   0  0  0  0  0  0
    0.8460   -4.4951   -1.5397 O   0  0  0  0  0  0
   -0.2592   -5.8084   -3.2429 C   0  0  0  0  0  0
    0.2825   -7.0780   -3.9190 C   0  0  0  0  0  0
    1.6774   -7.4656   -3.4118 C   0  0  0  0  0  0
    2.7073   -6.4325   -3.8060 C   0  0  0  0  0  0
    2.9204   -6.0953   -4.9655 O   0  0  0  0  0  0
    3.3704   -5.9136   -2.7619 O   0  0  0  0  0  0
   -0.7229   -8.1911   -3.5932 C   0  0  0  0  0  0
   -0.4716   -9.1162   -2.8360 O   0  0  0  0  0  0
   -1.8881   -8.0929   -4.2481 O   0  0  0  0  0  0
   -0.0116   -6.4635    2.1399 O   0  0  0  0  0  0
    0.7668   -7.1848    3.0299 C   0  0  0  0  0  0
    1.9582   -7.4217    2.8794 O   0  0  0  0  0  0
   -0.0328   -7.6653    4.2481 C   0  0  0  0  0  0
    0.3224   -9.0916    4.7718 C   0  0  0  0  0  0
    0.3321  -10.2519    3.7599 C   0  0  0  0  0  0
    1.7177  -10.6675    3.3573 C   0  0  0  0  0  0
    2.5760   -9.9315    2.8903 O   0  0  0  0  0  0
    1.9483  -11.9701    3.5818 O   0  0  0  0  0  0
    1.6325   -9.1716    5.5652 C   0  0  0  0  0  0
    1.8762  -10.0679    6.3487 O   0  0  0  0  0  0
    2.5535   -8.2339    5.2590 O   0  0  0  0  0  0
    4.9289  -16.8260    5.0206 H   0  0  0  0  0  0
    4.7524  -15.2817    4.5680 H   0  0  0  0  0  0
    4.8247  -14.6421    1.8518 H   0  0  0  0  0  0
    3.0986  -19.0061   -0.4329 H   0  0  0  0  0  0
   -0.3894  -11.9068   -0.1100 H   0  0  0  0  0  0
    4.0398   -5.2393   -2.9871 H   0  0  0  0  0  0
   -2.5590   -8.7748   -3.9957 H   0  0  0  0  0  0
    2.8713  -12.1449    3.3009 H   0  0  0  0  0  0
    3.3710   -8.2547    5.8045 H   0  0  0  0  0  0
  1  2  1  0  0  0
  2  3  1  0  0  0
  3  4  1  0  0  0
  4  5  1  0  0  0
  5  6  1  0  0  0
  5  7  1  0  0  0
  7  8  1  0  0  0
  7 39  1  0  0  0
  8  9  1  0  0  0
  8 27  1  0  0  0
  9 10  1  0  0  0
 10 11  1  0  0  0
 10 12  1  0  0  0
 12 13  1  0  0  0
 13 14  1  0  0  0
 13 26  1  0  0  0
 14 15  1  0  0  0
 15 16  1  0  0  0
 16 17  1  0  0  0
 17 18  1  0  0  0
 18 19  1  0  0  0
 18 25  1  0  0  0
 19 20  1  0  0  0
 20 21  1  0  0  0
 20 24  1  0  0  0
 21 22  1  0  0  0
 21 23  1  0  0  0
 23 51  1  0  0  0
 23 52  1  0  0  0
 24 53  1  0  0  0
 25 54  1  0  0  0
 26 55  1  0  0  0
 27 28  1  0  0  0
 28 29  2  0  0  0
 28 30  1  0  0  0
 30 31  1  0  0  0
 31 32  1  0  0  0
 31 36  1  0  0  0
 32 33  1  0  0  0
 33 34  2  0  0  0
 33 35  1  0  0  0
 35 56  1  0  0  0
 36 37  2  0  0  0
 36 38  1  0  0  0
 38 57  1  0  0  0
 39 40  1  0  0  0
 40 41  2  0  0  0
 40 42  1  0  0  0
 42 43  1  0  0  0
 43 44  1  0  0  0
 43 48  1  0  0  0
 44 45  1  0  0  0
 45 46  2  0  0  0
 45 47  1  0  0  0
 47 58  1  0  0  0
 48 49  2  0  0  0
 48 50  1  0  0  0
 50 59  1  0  0  0
M  END
>  <AUTHOR>
    GENERATED BY OPEN BABEL 2.4.1

>  <CHROM.1>
-63.53261177,87.31957743,103.83340867,46.80478720,114.52402127,-63.97392337
-158.75743295,66.16927980,106.21885286,-50.54401094,-54.68368466,-142.14909251
158.07227030,75.72998018,173.91278164,-138.72281874,57.52316020,46.26116418
58.75492392,167.35976903,50.86725221,-59.92910919,65.90453856,-11.63228087
-45.27469600,-23.69314079,-66.15255292,-109.98766764,-56.95794408,-179.70596709
-176.19428381,-9.09413274,141.77319533,-51.68797417,103.48905115,158.49676997
-55.27320120,-179.35990858,176.59820994,2.14987578,-9.61064254,0.64384264
-2.93731070,1.30195589,-2.07971335

>  <COMPND>
    UNNAMED

>  <MASTER>
        0    0    0    0    0    0    0    0  109    0  109    0

>  <Name>
FB1.pdb

>  <RI>
0

>  <Rbt.Current_Directory>
/home/fc/tossine/FB1_39/p3/1_clust05

>  <Rbt.Executable>
rbdock/0.1.0

>  <Rbt.Library>
librxdock.so/0.1.0

>  <Rbt.Parameter_File>
/cluster/rxdock/data/scripts/dock.prm

>  <Rbt.Receptor>
rx_2.prm

>  <SCORE>
25.0147

>  <SCORE.INTER>
12.535

>  <SCORE.INTER.CONST>
1

>  <SCORE.INTER.POLAR>
-2.20052

>  <SCORE.INTER.REPUL>
0.108428

>  <SCORE.INTER.ROT>
32

>  <SCORE.INTER.VDW>
-17.9253

>  <SCORE.INTER.norm>
0.250701

>  <SCORE.INTRA>
9.40473

>  <SCORE.INTRA.DIHEDRAL>
13.7899

>  <SCORE.INTRA.DIHEDRAL.0>
47.3121

>  <SCORE.INTRA.POLAR>
1.46776

>  <SCORE.INTRA.POLAR.0>
-1.47808

>  <SCORE.INTRA.REPUL>
0

>  <SCORE.INTRA.REPUL.0>
0

>  <SCORE.INTRA.VDW>
-2.48058

>  <SCORE.INTRA.VDW.0>
-2.78316

>  <SCORE.INTRA.norm>
0.188095

>  <SCORE.RESTR>
3.07493

>  <SCORE.RESTR.CAVITY>
3.07493

>  <SCORE.RESTR.norm>
0.0614985

>  <SCORE.SYSTEM>
0

>  <SCORE.SYSTEM.CONST>
0

>  <SCORE.SYSTEM.DIHEDRAL>
0

>  <SCORE.SYSTEM.norm>
0

>  <SCORE.heavy>
50

>  <SCORE.norm>
0.500294

$$$$
