FB1.pdb
  RxDock  10072007273D
librxdock.so/0.1.0
 59 58  0  0  0  0  0  0  0  0999 V2000
    0.4047   -8.8265    7.6671 C   0  0  0  0  0  0
    1.0831   -7.8041    6.7583 C   0  0  0  0  0  0
    1.7036   -8.4680    5.5180 C   0  0  0  0  0  0
    0.6533   -8.9769    4.4994 C   0  0  0  0  0  0
    1.2092   -9.9610    3.4117 C   0  0  0  0  0  0
    0.0229  -10.7678    2.8352 C   0  0  0  0  0  0
    2.0174   -9.2354    2.2550 C   0  0  0  0  0  0
    2.8212  -10.1719    1.2337 C   0  0  0  0  0  0
    4.1826   -9.7808    0.5113 C   0  0  0  0  0  0
    4.1247   -8.4005   -0.3902 C   0  0  0  0  0  0
    2.7324   -8.2827   -1.0080 C   0  0  0  0  0  0
    4.4879   -7.0471    0.3721 C   0  0  0  0  0  0
    4.7562   -5.6329   -0.3673 C   0  0  0  0  0  0
    3.6864   -4.9489   -1.2859 C   0  0  0  0  0  0
    2.4201   -4.2653   -0.5943 C   0  0  0  0  0  0
    1.0336   -4.0306   -1.3135 C   0  0  0  0  0  0
    0.4381   -5.1486   -2.2095 C   0  0  0  0  0  0
   -0.5574   -6.1554   -1.5133 C   0  0  0  0  0  0
   -1.5317   -6.8960   -2.4379 C   0  0  0  0  0  0
   -1.0649   -7.2340   -3.8823 C   0  0  0  0  0  0
   -1.5730   -8.5207   -4.5974 C   0  0  0  0  0  0
   -0.9031   -8.8709   -5.9187 C   0  0  0  0  0  0
   -1.5590   -9.6737   -3.6772 N   0  0  0  0  0  0
   -1.5543   -6.1355   -4.6933 O   0  0  0  0  0  0
    0.2201   -7.1245   -0.8019 O   0  0  0  0  0  0
    4.9890   -4.6969    0.6987 O   0  0  0  0  0  0
    3.1369  -11.3897    1.9615 O   0  0  0  0  0  0
    3.1313  -12.5498    1.2547 C   0  0  0  0  0  0
    2.7192  -12.6989    0.1201 O   0  0  0  0  0  0
    3.8165  -13.6091    2.0731 C   0  0  0  0  0  0
    4.8669  -14.3901    1.2674 C   0  0  0  0  0  0
    5.9190  -15.0571    2.1627 C   0  0  0  0  0  0
    5.4848  -16.4451    2.5729 C   0  0  0  0  0  0
    4.7219  -16.6689    3.5066 O   0  0  0  0  0  0
    6.0138  -17.4165    1.8144 O   0  0  0  0  0  0
    4.0900  -15.4579    0.4849 C   0  0  0  0  0  0
    4.6281  -16.2601   -0.2629 O   0  0  0  0  0  0
    2.7611  -15.4075    0.6508 O   0  0  0  0  0  0
    1.1686   -8.2453    1.5485 O   0  0  0  0  0  0
    1.1465   -6.9423    2.0175 C   0  0  0  0  0  0
    0.3494   -6.0860    1.6572 O   0  0  0  0  0  0
    2.2446   -6.6768    3.0558 C   0  0  0  0  0  0
    2.2111   -5.2715    3.7329 C   0  0  0  0  0  0
    0.8483   -4.7229    4.1936 C   0  0  0  0  0  0
    0.1322   -3.9544    3.1206 C   0  0  0  0  0  0
    0.6046   -3.6286    2.0402 O   0  0  0  0  0  0
   -1.1325   -3.6594    3.4578 O   0  0  0  0  0  0
    3.1860   -5.1050    4.9050 C   0  0  0  0  0  0
    4.3014   -5.5872    4.9097 O   0  0  0  0  0  0
    2.7657   -4.2927    5.8973 O   0  0  0  0  0  0
   -2.1765  -10.3985   -4.0404 H   0  0  0  0  0  0
   -1.9804   -9.3889   -2.7902 H   0  0  0  0  0  0
   -2.5252   -6.2675   -4.7273 H   0  0  0  0  0  0
    0.7039   -6.6643   -0.0915 H   0  0  0  0  0  0
    5.1952   -3.8342    0.3016 H   0  0  0  0  0  0
    6.5463  -17.1093    1.0558 H   0  0  0  0  0  0
    2.2529  -16.0398    0.0845 H   0  0  0  0  0  0
   -1.5331   -3.2117    2.6830 H   0  0  0  0  0  0
    2.2113   -3.5330    5.6114 H   0  0  0  0  0  0
  1  2  1  0  0  0
  2  3  1  0  0  0
  3  4  1  0  0  0
  4  5  1  0  0  0
  5  6  1  0  0  0
  5  7  1  0  0  0
  7  8  1  0  0  0
  7 39  1  0  0  0
  8  9  1  0  0  0
  8 27  1  0  0  0
  9 10  1  0  0  0
 10 11  1  0  0  0
 10 12  1  0  0  0
 12 13  1  0  0  0
 13 14  1  0  0  0
 13 26  1  0  0  0
 14 15  1  0  0  0
 15 16  1  0  0  0
 16 17  1  0  0  0
 17 18  1  0  0  0
 18 19  1  0  0  0
 18 25  1  0  0  0
 19 20  1  0  0  0
 20 21  1  0  0  0
 20 24  1  0  0  0
 21 22  1  0  0  0
 21 23  1  0  0  0
 23 51  1  0  0  0
 23 52  1  0  0  0
 24 53  1  0  0  0
 25 54  1  0  0  0
 26 55  1  0  0  0
 27 28  1  0  0  0
 28 29  2  0  0  0
 28 30  1  0  0  0
 30 31  1  0  0  0
 31 32  1  0  0  0
 31 36  1  0  0  0
 32 33  1  0  0  0
 33 34  2  0  0  0
 33 35  1  0  0  0
 35 56  1  0  0  0
 36 37  2  0  0  0
 36 38  1  0  0  0
 38 57  1  0  0  0
 39 40  1  0  0  0
 40 41  2  0  0  0
 40 42  1  0  0  0
 42 43  1  0  0  0
 43 44  1  0  0  0
 43 48  1  0  0  0
 44 45  1  0  0  0
 45 46  2  0  0  0
 45 47  1  0  0  0
 47 58  1  0  0  0
 48 49  2  0  0  0
 48 50  1  0  0  0
 50 59  1  0  0  0
M  END
>  <AUTHOR>
    GENERATED BY OPEN BABEL 2.4.1

>  <CHROM.1>
70.99598579,-165.51210843,159.12953573,170.35603888,-148.11629522,90.24087535
-57.09647906,145.14039514,-33.96584386,168.37839004,58.42859270,73.62460814
177.53304194,-155.84849830,42.36862244,92.78453710,157.66516817,31.84570226
64.49764978,147.85980633,-171.16914275,-71.34047429,160.51904031,-10.41552069
-131.66958626,157.72781558,89.31272865,-179.92576369,-82.41956777,-4.84394607
174.67153252,-168.61316920,-174.64290030,43.87605135,-88.42012332,38.03787349
-8.76114027,-176.57551520,-33.59151999,2.04712286,-8.77348946,1.17283707
-0.62019416,-1.14665494,0.80229778

>  <COMPND>
    UNNAMED

>  <MASTER>
        0    0    0    0    0    0    0    0  109    0  109    0

>  <Name>
FB1.pdb

>  <RI>
0

>  <Rbt.Current_Directory>
/home/fc/tossine/FB1_39/p3/1_clust05

>  <Rbt.Executable>
rbdock/0.1.0

>  <Rbt.Library>
librxdock.so/0.1.0

>  <Rbt.Parameter_File>
/cluster/rxdock/data/scripts/dock.prm

>  <Rbt.Receptor>
rx_0.prm

>  <SCORE>
37.4408

>  <SCORE.INTER>
11.1623

>  <SCORE.INTER.CONST>
1

>  <SCORE.INTER.POLAR>
-1.29588

>  <SCORE.INTER.REPUL>
0.19585

>  <SCORE.INTER.ROT>
32

>  <SCORE.INTER.VDW>
-22.811

>  <SCORE.INTER.norm>
0.223246

>  <SCORE.INTRA>
22.9078

>  <SCORE.INTRA.DIHEDRAL>
19.6467

>  <SCORE.INTRA.DIHEDRAL.0>
47.3121

>  <SCORE.INTRA.POLAR>
1.40817

>  <SCORE.INTRA.POLAR.0>
-1.47808

>  <SCORE.INTRA.REPUL>
0

>  <SCORE.INTRA.REPUL.0>
0

>  <SCORE.INTRA.VDW>
8.29667

>  <SCORE.INTRA.VDW.0>
-2.78316

>  <SCORE.INTRA.norm>
0.458156

>  <SCORE.RESTR>
3.37068

>  <SCORE.RESTR.CAVITY>
3.37068

>  <SCORE.RESTR.norm>
0.0674135

>  <SCORE.SYSTEM>
0

>  <SCORE.SYSTEM.CONST>
0

>  <SCORE.SYSTEM.DIHEDRAL>
0

>  <SCORE.SYSTEM.norm>
0

>  <SCORE.heavy>
50

>  <SCORE.norm>
0.748816

$$$$
