FB1.pdb
  RxDock  10072007273D
librxdock.so/0.1.0
 59 58  0  0  0  0  0  0  0  0999 V2000
    0.5641   -2.5595   -0.2823 C   0  0  0  0  0  0
    1.5853   -3.6920   -0.2039 C   0  0  0  0  0  0
    2.7540   -3.3411    0.7317 C   0  0  0  0  0  0
    3.5582   -4.5774    1.2056 C   0  0  0  0  0  0
    4.0610   -5.5196    0.0568 C   0  0  0  0  0  0
    5.6071   -5.5131    0.0651 C   0  0  0  0  0  0
    3.4992   -7.0000    0.1605 C   0  0  0  0  0  0
    3.7436   -7.7738    1.5417 C   0  0  0  0  0  0
    4.5255   -9.1499    1.6937 C   0  0  0  0  0  0
    3.6435  -10.4983    1.3401 C   0  0  0  0  0  0
    3.1298  -10.3797   -0.0938 C   0  0  0  0  0  0
    4.3900  -11.8957    1.5270 C   0  0  0  0  0  0
    3.7948  -13.3162    1.0303 C   0  0  0  0  0  0
    4.4292  -14.6861    1.4509 C   0  0  0  0  0  0
    4.2866  -15.1516    2.9715 C   0  0  0  0  0  0
    5.4328  -15.0250    4.0508 C   0  0  0  0  0  0
    6.6419  -15.9961    3.9996 C   0  0  0  0  0  0
    7.6615  -15.7913    2.8131 C   0  0  0  0  0  0
    8.2328  -14.3779    2.6445 C   0  0  0  0  0  0
    9.7197  -14.2302    2.2140 C   0  0  0  0  0  0
   10.3533  -12.8197    2.0280 C   0  0  0  0  0  0
   11.8253  -12.7838    1.6414 C   0  0  0  0  0  0
    9.5459  -11.9983    1.1061 N   0  0  0  0  0  0
   10.4764  -14.8428    3.2892 O   0  0  0  0  0  0
    8.7497  -16.7019    3.0038 O   0  0  0  0  0  0
    2.4512  -13.3525    1.5402 O   0  0  0  0  0  0
    4.4671   -6.8519    2.4014 O   0  0  0  0  0  0
    3.9033   -6.5558    3.6013 C   0  0  0  0  0  0
    3.8723   -5.4614    4.1311 O   0  0  0  0  0  0
    3.2279   -7.7919    4.1279 C   0  0  0  0  0  0
    1.6993   -7.6459    4.1960 C   0  0  0  0  0  0
    0.9887   -8.9887    4.4088 C   0  0  0  0  0  0
    1.1235   -9.8756    3.1928 C   0  0  0  0  0  0
    0.6863   -9.5801    2.0859 O   0  0  0  0  0  0
    1.7722  -11.0236    3.4380 O   0  0  0  0  0  0
    1.4173   -6.7091    5.3787 C   0  0  0  0  0  0
    0.9838   -5.5751    5.2426 O   0  0  0  0  0  0
    1.7330   -7.2203    6.5766 O   0  0  0  0  0  0
    2.0809   -7.0657   -0.2683 O   0  0  0  0  0  0
    1.7829   -7.6938   -1.4661 C   0  0  0  0  0  0
    2.5266   -7.7289   -2.4378 O   0  0  0  0  0  0
    0.3982   -8.3547   -1.4502 C   0  0  0  0  0  0
   -0.0649   -8.9895   -2.7982 C   0  0  0  0  0  0
   -1.2833   -9.9304   -2.7737 C   0  0  0  0  0  0
   -0.9385  -11.3252   -2.3375 C   0  0  0  0  0  0
    0.1419  -11.6871   -1.8923 O   0  0  0  0  0  0
   -1.9703  -12.1732   -2.4671 O   0  0  0  0  0  0
   -0.2932   -7.9823   -3.9321 C   0  0  0  0  0  0
   -0.2050   -6.7805   -3.7755 O   0  0  0  0  0  0
   -0.4958   -8.5205   -5.1530 O   0  0  0  0  0  0
    8.5700  -12.0301    1.3980 H   0  0  0  0  0  0
    9.5589  -12.4359    0.1821 H   0  0  0  0  0  0
   10.1783  -15.7768    3.2994 H   0  0  0  0  0  0
    8.4492  -17.5932    2.7471 H   0  0  0  0  0  0
    2.0266  -14.1625    1.2114 H   0  0  0  0  0  0
    1.8957  -11.6059    2.6640 H   0  0  0  0  0  0
    1.9542   -8.1845    6.5656 H   0  0  0  0  0  0
   -1.6382  -13.0607   -2.2156 H   0  0  0  0  0  0
   -0.4961   -9.5030   -5.1837 H   0  0  0  0  0  0
  1  2  1  0  0  0
  2  3  1  0  0  0
  3  4  1  0  0  0
  4  5  1  0  0  0
  5  6  1  0  0  0
  5  7  1  0  0  0
  7  8  1  0  0  0
  7 39  1  0  0  0
  8  9  1  0  0  0
  8 27  1  0  0  0
  9 10  1  0  0  0
 10 11  1  0  0  0
 10 12  1  0  0  0
 12 13  1  0  0  0
 13 14  1  0  0  0
 13 26  1  0  0  0
 14 15  1  0  0  0
 15 16  1  0  0  0
 16 17  1  0  0  0
 17 18  1  0  0  0
 18 19  1  0  0  0
 18 25  1  0  0  0
 19 20  1  0  0  0
 20 21  1  0  0  0
 20 24  1  0  0  0
 21 22  1  0  0  0
 21 23  1  0  0  0
 23 51  1  0  0  0
 23 52  1  0  0  0
 24 53  1  0  0  0
 25 54  1  0  0  0
 26 55  1  0  0  0
 27 28  1  0  0  0
 28 29  2  0  0  0
 28 30  1  0  0  0
 30 31  1  0  0  0
 31 32  1  0  0  0
 31 36  1  0  0  0
 32 33  1  0  0  0
 33 34  2  0  0  0
 33 35  1  0  0  0
 35 56  1  0  0  0
 36 37  2  0  0  0
 36 38  1  0  0  0
 38 57  1  0  0  0
 39 40  1  0  0  0
 40 41  2  0  0  0
 40 42  1  0  0  0
 42 43  1  0  0  0
 43 44  1  0  0  0
 43 48  1  0  0  0
 44 45  1  0  0  0
 45 46  2  0  0  0
 45 47  1  0  0  0
 47 58  1  0  0  0
 48 49  2  0  0  0
 48 50  1  0  0  0
 50 59  1  0  0  0
M  END
>  <AUTHOR>
    GENERATED BY OPEN BABEL 2.4.1

>  <CHROM.1>
161.35423039,52.41342207,116.56731421,-54.62678168,-121.30822691,109.28584494
-81.02467009,123.01012156,57.85594570,-170.40890387,-168.93303642,69.69660072
175.88213559,-101.10545057,-74.20663016,70.88574854,53.14731092,142.76374336
76.16599266,-179.97478879,178.40781486,61.42276508,49.88390599,-139.60259284
-113.62939650,166.40962550,-68.29121741,110.80135935,-61.52178901,-178.39080249
-10.31758455,-30.86168613,175.38674939,166.59616369,-81.17061101,-4.49061607
8.12988370,176.48310452,1.33136796,3.44744196,-9.72790008,1.18698976,-2.60074301
0.72280044,-2.69461103

>  <COMPND>
    UNNAMED

>  <MASTER>
        0    0    0    0    0    0    0    0  109    0  109    0

>  <Name>
FB1.pdb

>  <RI>
0

>  <Rbt.Current_Directory>
/home/fc/tossine/FB1_39/p3/1_clust05

>  <Rbt.Executable>
rbdock/0.1.0

>  <Rbt.Library>
librxdock.so/0.1.0

>  <Rbt.Parameter_File>
/cluster/rxdock/data/scripts/dock.prm

>  <Rbt.Receptor>
rx_0.prm

>  <SCORE>
35.2702

>  <SCORE.INTER>
20.4141

>  <SCORE.INTER.CONST>
1

>  <SCORE.INTER.POLAR>
-1.78933

>  <SCORE.INTER.REPUL>
1.03024

>  <SCORE.INTER.ROT>
32

>  <SCORE.INTER.VDW>
-16.0534

>  <SCORE.INTER.norm>
0.408281

>  <SCORE.INTRA>
11.6226

>  <SCORE.INTRA.DIHEDRAL>
22.3005

>  <SCORE.INTRA.DIHEDRAL.0>
47.3121

>  <SCORE.INTRA.POLAR>
-0.310733

>  <SCORE.INTRA.POLAR.0>
-1.47808

>  <SCORE.INTRA.REPUL>
0

>  <SCORE.INTRA.REPUL.0>
0

>  <SCORE.INTRA.VDW>
1.52888

>  <SCORE.INTRA.VDW.0>
-2.78316

>  <SCORE.INTRA.norm>
0.232453

>  <SCORE.RESTR>
3.23347

>  <SCORE.RESTR.CAVITY>
3.23347

>  <SCORE.RESTR.norm>
0.0646694

>  <SCORE.SYSTEM>
0

>  <SCORE.SYSTEM.CONST>
0

>  <SCORE.SYSTEM.DIHEDRAL>
0

>  <SCORE.SYSTEM.norm>
0

>  <SCORE.heavy>
50

>  <SCORE.norm>
0.705404

$$$$
