FB1.pdb
  RxDock  10072009463D
librxdock.so/0.1.0
 59 58  0  0  0  0  0  0  0  0999 V2000
   -1.1627   -5.0311    4.4036 C   0  0  0  0  0  0
    0.2870   -5.2856    4.8098 C   0  0  0  0  0  0
    1.1731   -5.5968    3.5923 C   0  0  0  0  0  0
    2.5753   -6.1357    3.9707 C   0  0  0  0  0  0
    3.3830   -6.7688    2.7844 C   0  0  0  0  0  0
    4.6310   -7.4714    3.3671 C   0  0  0  0  0  0
    2.5282   -7.7715    1.9003 C   0  0  0  0  0  0
    3.2364   -8.3729    0.5953 C   0  0  0  0  0  0
    3.7065   -7.5237   -0.6641 C   0  0  0  0  0  0
    2.5415   -7.2542   -1.8005 C   0  0  0  0  0  0
    3.1466   -6.4176   -2.9266 C   0  0  0  0  0  0
    1.8437   -8.5513   -2.4133 C   0  0  0  0  0  0
    0.2779   -8.6362   -2.8132 C   0  0  0  0  0  0
   -0.4366   -7.5217   -3.6519 C   0  0  0  0  0  0
   -2.0086   -7.6510   -3.8996 C   0  0  0  0  0  0
   -2.7576   -7.0853   -5.1699 C   0  0  0  0  0  0
   -2.1654   -7.3368   -6.5818 C   0  0  0  0  0  0
   -2.8357   -6.5557   -7.7775 C   0  0  0  0  0  0
   -4.3277   -6.8229   -8.0120 C   0  0  0  0  0  0
   -4.7386   -7.6831   -9.2406 C   0  0  0  0  0  0
   -4.8710   -7.0360  -10.6510 C   0  0  0  0  0  0
   -3.5704   -6.7205  -11.3764 C   0  0  0  0  0  0
   -5.7750   -7.8256  -11.5087 N   0  0  0  0  0  0
   -3.6772   -8.6626   -9.3750 O   0  0  0  0  0  0
   -2.6555   -5.1544   -7.5459 O   0  0  0  0  0  0
    0.1625   -9.8320   -3.6028 O   0  0  0  0  0  0
    4.4467   -9.0320    1.0570 O   0  0  0  0  0  0
    4.4006  -10.3830    1.1910 C   0  0  0  0  0  0
    5.0083  -11.0459    2.0099 O   0  0  0  0  0  0
    3.3886  -10.9235    0.2187 C   0  0  0  0  0  0
    3.1888  -12.4412    0.3573 C   0  0  0  0  0  0
    2.6796  -12.8434    1.7473 C   0  0  0  0  0  0
    1.4035  -13.6468    1.6489 C   0  0  0  0  0  0
    0.3009  -13.2092    1.9593 O   0  0  0  0  0  0
    1.5902  -14.8915    1.1856 O   0  0  0  0  0  0
    2.1591  -12.8305   -0.7123 C   0  0  0  0  0  0
    2.0689  -13.9588   -1.1719 O   0  0  0  0  0  0
    1.3951  -11.8158   -1.1398 O   0  0  0  0  0  0
    1.9138   -8.8318    2.7359 O   0  0  0  0  0  0
    0.8896   -9.5889    2.1919 C   0  0  0  0  0  0
    0.4868   -9.4904    1.0402 O   0  0  0  0  0  0
    0.3002  -10.5840    3.2002 C   0  0  0  0  0  0
    1.1548  -10.8370    4.4809 C   0  0  0  0  0  0
    0.5428  -10.4657    5.8439 C   0  0  0  0  0  0
    1.5619  -10.3929    6.9442 C   0  0  0  0  0  0
    1.9478  -11.3348    7.6228 O   0  0  0  0  0  0
    2.0472   -9.1534    7.1131 O   0  0  0  0  0  0
    1.7093  -12.2615    4.6063 C   0  0  0  0  0  0
    2.8808  -12.4969    4.8275 O   0  0  0  0  0  0
    0.7890  -13.2475    4.5615 O   0  0  0  0  0  0
   -6.7197   -7.7805  -11.1291 H   0  0  0  0  0  0
   -5.5109   -8.8112  -11.4415 H   0  0  0  0  0  0
   -3.5826   -9.0483   -8.4786 H   0  0  0  0  0  0
   -3.0745   -4.6685   -8.2799 H   0  0  0  0  0  0
    0.7307   -9.7319   -4.3849 H   0  0  0  0  0  0
    0.7742  -15.4047    1.0295 H   0  0  0  0  0  0
    0.7434  -12.0610   -1.8426 H   0  0  0  0  0  0
    2.6161   -9.1804    7.9111 H   0  0  0  0  0  0
   -0.1394  -12.9496    4.4366 H   0  0  0  0  0  0
  1  2  1  0  0  0
  2  3  1  0  0  0
  3  4  1  0  0  0
  4  5  1  0  0  0
  5  6  1  0  0  0
  5  7  1  0  0  0
  7  8  1  0  0  0
  7 39  1  0  0  0
  8  9  1  0  0  0
  8 27  1  0  0  0
  9 10  1  0  0  0
 10 11  1  0  0  0
 10 12  1  0  0  0
 12 13  1  0  0  0
 13 14  1  0  0  0
 13 26  1  0  0  0
 14 15  1  0  0  0
 15 16  1  0  0  0
 16 17  1  0  0  0
 17 18  1  0  0  0
 18 19  1  0  0  0
 18 25  1  0  0  0
 19 20  1  0  0  0
 20 21  1  0  0  0
 20 24  1  0  0  0
 21 22  1  0  0  0
 21 23  1  0  0  0
 23 51  1  0  0  0
 23 52  1  0  0  0
 24 53  1  0  0  0
 25 54  1  0  0  0
 26 55  1  0  0  0
 27 28  1  0  0  0
 28 29  2  0  0  0
 28 30  1  0  0  0
 30 31  1  0  0  0
 31 32  1  0  0  0
 31 36  1  0  0  0
 32 33  1  0  0  0
 33 34  2  0  0  0
 33 35  1  0  0  0
 35 56  1  0  0  0
 36 37  2  0  0  0
 36 38  1  0  0  0
 38 57  1  0  0  0
 39 40  1  0  0  0
 40 41  2  0  0  0
 40 42  1  0  0  0
 42 43  1  0  0  0
 43 44  1  0  0  0
 43 48  1  0  0  0
 44 45  1  0  0  0
 45 46  2  0  0  0
 45 47  1  0  0  0
 47 58  1  0  0  0
 48 49  2  0  0  0
 48 50  1  0  0  0
 50 59  1  0  0  0
M  END
>  <AUTHOR>
    GENERATED BY OPEN BABEL 2.4.1

>  <CHROM.1>
-168.48573081,166.65775178,-170.19813181,175.10676008,-64.30240726,164.63799598
-85.63674220,100.16933128,179.34908406,143.55224460,47.31341892,-175.56887268
-60.55866232,-150.66563419,46.10853590,-170.65618561,-59.91476443,-106.72390497
-179.59054003,-83.02077302,75.73722219,50.62177586,66.15902906,-147.89238656
-176.06027257,60.83248276,124.70979857,156.30008706,-107.58440413,-174.32525336
178.80676168,3.48431100,-15.19067452,118.06477121,-164.18048106,129.23942066
-86.33034413,173.39403219,1.06146955,0.71091944,-9.28011432,-0.42624335,0.10823868
-1.16501834,0.35866352

>  <COMPND>
    UNNAMED

>  <MASTER>
        0    0    0    0    0    0    0    0  109    0  109    0

>  <Name>
FB1.pdb

>  <RI>
0

>  <Rbt.Current_Directory>
/home/fc/tossine/FB1_39/p3/1_clust05

>  <Rbt.Executable>
rbdock/0.1.0

>  <Rbt.Library>
librxdock.so/0.1.0

>  <Rbt.Parameter_File>
/cluster/rxdock/data/scripts/dock.prm

>  <Rbt.Receptor>
rx_4.prm

>  <SCORE>
44.5371

>  <SCORE.INTER>
17.914

>  <SCORE.INTER.CONST>
1

>  <SCORE.INTER.POLAR>
-2.74896

>  <SCORE.INTER.REPUL>
1.18353

>  <SCORE.INTER.ROT>
32

>  <SCORE.INTER.VDW>
-16.0571

>  <SCORE.INTER.norm>
0.358281

>  <SCORE.INTRA>
13.4871

>  <SCORE.INTRA.DIHEDRAL>
10.2571

>  <SCORE.INTRA.DIHEDRAL.0>
47.3121

>  <SCORE.INTRA.POLAR>
1.47808

>  <SCORE.INTRA.POLAR.0>
-1.47808

>  <SCORE.INTRA.REPUL>
0.000233562

>  <SCORE.INTRA.REPUL.0>
0

>  <SCORE.INTRA.VDW>
3.33191

>  <SCORE.INTRA.VDW.0>
-2.78316

>  <SCORE.INTRA.norm>
0.269741

>  <SCORE.RESTR>
13.136

>  <SCORE.RESTR.CAVITY>
13.136

>  <SCORE.RESTR.norm>
0.262721

>  <SCORE.SYSTEM>
0

>  <SCORE.SYSTEM.CONST>
0

>  <SCORE.SYSTEM.DIHEDRAL>
0

>  <SCORE.SYSTEM.norm>
0

>  <SCORE.heavy>
50

>  <SCORE.norm>
0.890743

$$$$
