FB1.pdb
  RxDock  10072007283D
librxdock.so/0.1.0
 59 58  0  0  0  0  0  0  0  0999 V2000
    5.1274   -3.9951    0.0757 C   0  0  0  0  0  0
    5.2485   -5.1543   -0.9107 C   0  0  0  0  0  0
    5.2614   -6.5139   -0.1927 C   0  0  0  0  0  0
    3.8998   -6.8892    0.4437 C   0  0  0  0  0  0
    3.6798   -8.4245    0.6781 C   0  0  0  0  0  0
    4.4043   -8.8249    1.9840 C   0  0  0  0  0  0
    2.1505   -8.8451    0.7256 C   0  0  0  0  0  0
    1.8301  -10.4143    0.7557 C   0  0  0  0  0  0
    0.5794  -11.1063    0.0592 C   0  0  0  0  0  0
    0.2346  -10.5620   -1.4594 C   0  0  0  0  0  0
   -0.1572  -11.7577   -2.3260 C   0  0  0  0  0  0
   -0.8891   -9.4346   -1.5639 C   0  0  0  0  0  0
   -1.2058   -8.5906   -2.9078 C   0  0  0  0  0  0
   -2.0078   -7.2443   -2.8850 C   0  0  0  0  0  0
   -2.1106   -6.4010   -4.2368 C   0  0  0  0  0  0
   -2.6883   -6.9649   -5.5942 C   0  0  0  0  0  0
   -2.1527   -6.4121   -6.9414 C   0  0  0  0  0  0
   -0.6185   -6.6337   -7.2350 C   0  0  0  0  0  0
   -0.0594   -8.0254   -6.9138 C   0  0  0  0  0  0
    0.0830   -9.0490   -8.0759 C   0  0  0  0  0  0
   -1.0610   -9.2283   -9.1172 C   0  0  0  0  0  0
   -2.4831   -9.0912   -8.5917 C   0  0  0  0  0  0
   -0.8459   -8.3586  -10.2893 N   0  0  0  0  0  0
    1.2194   -8.5772   -8.8441 O   0  0  0  0  0  0
   -0.3902   -6.3608   -8.6217 O   0  0  0  0  0  0
    0.0843   -8.2497   -3.4427 O   0  0  0  0  0  0
    2.9820  -11.0757    0.1656 O   0  0  0  0  0  0
    2.8194  -12.3667   -0.2242 C   0  0  0  0  0  0
    2.9861  -12.8059   -1.3461 O   0  0  0  0  0  0
    2.4946  -13.1931    0.9895 C   0  0  0  0  0  0
    3.6308  -14.1560    1.3695 C   0  0  0  0  0  0
    3.4144  -14.8101    2.7401 C   0  0  0  0  0  0
    4.2895  -14.1709    3.7933 C   0  0  0  0  0  0
    4.0020  -13.1294    4.3732 O   0  0  0  0  0  0
    5.4171  -14.8546    4.0380 O   0  0  0  0  0  0
    3.6578  -15.2300    0.2733 C   0  0  0  0  0  0
    2.6806  -15.5208   -0.3998 O   0  0  0  0  0  0
    4.8331  -15.8614    0.1464 O   0  0  0  0  0  0
    1.4262   -8.1109    1.7916 O   0  0  0  0  0  0
    0.9366   -6.8473    1.5056 C   0  0  0  0  0  0
    0.7998   -6.3924    0.3775 O   0  0  0  0  0  0
    0.5754   -6.0607    2.7726 C   0  0  0  0  0  0
    1.6463   -6.0753    3.9073 C   0  0  0  0  0  0
    3.1312   -6.0641    3.5007 C   0  0  0  0  0  0
    3.9785   -6.9678    4.3491 C   0  0  0  0  0  0
    5.1951   -6.9066    4.4620 O   0  0  0  0  0  0
    3.2508   -7.8764    5.0163 O   0  0  0  0  0  0
    1.4604   -4.9886    4.9735 C   0  0  0  0  0  0
    2.1912   -4.0220    5.0655 O   0  0  0  0  0  0
    0.3608   -5.1162    5.7453 O   0  0  0  0  0  0
   -1.5789   -7.6512  -10.3194 H   0  0  0  0  0  0
   -0.9807   -8.9138  -11.1372 H   0  0  0  0  0  0
    1.3529   -9.2621   -9.5329 H   0  0  0  0  0  0
    0.5503   -6.5309   -8.8144 H   0  0  0  0  0  0
    0.5397   -7.6873   -2.7940 H   0  0  0  0  0  0
    6.0022  -14.4644    4.7154 H   0  0  0  0  0  0
    5.5861  -15.4245    0.6164 H   0  0  0  0  0  0
    3.8424   -8.2694    5.6922 H   0  0  0  0  0  0
    0.3630   -4.5821    6.5705 H   0  0  0  0  0  0
  1  2  1  0  0  0
  2  3  1  0  0  0
  3  4  1  0  0  0
  4  5  1  0  0  0
  5  6  1  0  0  0
  5  7  1  0  0  0
  7  8  1  0  0  0
  7 39  1  0  0  0
  8  9  1  0  0  0
  8 27  1  0  0  0
  9 10  1  0  0  0
 10 11  1  0  0  0
 10 12  1  0  0  0
 12 13  1  0  0  0
 13 14  1  0  0  0
 13 26  1  0  0  0
 14 15  1  0  0  0
 15 16  1  0  0  0
 16 17  1  0  0  0
 17 18  1  0  0  0
 18 19  1  0  0  0
 18 25  1  0  0  0
 19 20  1  0  0  0
 20 21  1  0  0  0
 20 24  1  0  0  0
 21 22  1  0  0  0
 21 23  1  0  0  0
 23 51  1  0  0  0
 23 52  1  0  0  0
 24 53  1  0  0  0
 25 54  1  0  0  0
 26 55  1  0  0  0
 27 28  1  0  0  0
 28 29  2  0  0  0
 28 30  1  0  0  0
 30 31  1  0  0  0
 31 32  1  0  0  0
 31 36  1  0  0  0
 32 33  1  0  0  0
 33 34  2  0  0  0
 33 35  1  0  0  0
 35 56  1  0  0  0
 36 37  2  0  0  0
 36 38  1  0  0  0
 38 57  1  0  0  0
 39 40  1  0  0  0
 40 41  2  0  0  0
 40 42  1  0  0  0
 42 43  1  0  0  0
 43 44  1  0  0  0
 43 48  1  0  0  0
 44 45  1  0  0  0
 45 46  2  0  0  0
 45 47  1  0  0  0
 47 58  1  0  0  0
 48 49  2  0  0  0
 48 50  1  0  0  0
 50 59  1  0  0  0
M  END
>  <AUTHOR>
    GENERATED BY OPEN BABEL 2.4.1

>  <CHROM.1>
69.46784562,157.08920843,81.00515549,171.70691653,-145.32810368,84.46489241
42.88234394,-164.08980086,139.82337528,169.32859078,-162.34535642,172.58322184
-62.54431190,56.76209265,-150.13842164,61.94491725,43.95186282,98.04941366
-177.79400973,-44.13748331,-35.36278287,175.56117506,-113.45696697,121.82190516
-111.03844439,169.55798747,-103.22051936,-25.27872218,82.15180250,-179.97510091
-13.53191763,16.23169856,47.15835111,35.76293770,-139.76213025,-107.88451816
-161.06609168,-166.75168837,163.99244949,1.72782209,-9.07721089,-0.73519163
0.34050651,-1.16172356,0.53892174

>  <COMPND>
    UNNAMED

>  <MASTER>
        0    0    0    0    0    0    0    0  109    0  109    0

>  <Name>
FB1.pdb

>  <RI>
0

>  <Rbt.Current_Directory>
/home/fc/tossine/FB1_39/p3/1_clust05

>  <Rbt.Executable>
rbdock/0.1.0

>  <Rbt.Library>
librxdock.so/0.1.0

>  <Rbt.Parameter_File>
/cluster/rxdock/data/scripts/dock.prm

>  <Rbt.Receptor>
rx_0.prm

>  <SCORE>
66.0882

>  <SCORE.INTER>
27.6383

>  <SCORE.INTER.CONST>
1

>  <SCORE.INTER.POLAR>
-1.47073

>  <SCORE.INTER.REPUL>
2.81259

>  <SCORE.INTER.ROT>
32

>  <SCORE.INTER.VDW>
-18.8242

>  <SCORE.INTER.norm>
0.552765

>  <SCORE.INTRA>
25.0992

>  <SCORE.INTRA.DIHEDRAL>
32.1594

>  <SCORE.INTRA.DIHEDRAL.0>
47.3121

>  <SCORE.INTRA.POLAR>
1.12278

>  <SCORE.INTRA.POLAR.0>
-1.47808

>  <SCORE.INTRA.REPUL>
0

>  <SCORE.INTRA.REPUL.0>
0

>  <SCORE.INTRA.VDW>
5.20206

>  <SCORE.INTRA.VDW.0>
-2.78316

>  <SCORE.INTRA.norm>
0.501984

>  <SCORE.RESTR>
13.3507

>  <SCORE.RESTR.CAVITY>
13.3507

>  <SCORE.RESTR.norm>
0.267015

>  <SCORE.SYSTEM>
0

>  <SCORE.SYSTEM.CONST>
0

>  <SCORE.SYSTEM.DIHEDRAL>
0

>  <SCORE.SYSTEM.norm>
0

>  <SCORE.heavy>
50

>  <SCORE.norm>
1.32176

$$$$
