FB1.pdb
  RxDock  10072009213D
librxdock.so/0.1.0
 59 58  0  0  0  0  0  0  0  0999 V2000
    7.5579   -1.4735    0.2931 C   0  0  0  0  0  0
    6.2145   -0.7550    0.1908 C   0  0  0  0  0  0
    5.0499   -1.6610    0.6234 C   0  0  0  0  0  0
    4.9368   -2.9617   -0.2103 C   0  0  0  0  0  0
    3.6549   -3.8200    0.0734 C   0  0  0  0  0  0
    2.4362   -3.0881   -0.5348 C   0  0  0  0  0  0
    3.7545   -5.3066   -0.4725 C   0  0  0  0  0  0
    2.5846   -6.3154   -0.0484 C   0  0  0  0  0  0
    1.7490   -6.2316    1.3018 C   0  0  0  0  0  0
    2.2354   -7.2665    2.4908 C   0  0  0  0  0  0
    3.1408   -6.5041    3.4569 C   0  0  0  0  0  0
    1.0745   -7.9946    3.3075 C   0  0  0  0  0  0
    1.1873   -9.4951    3.9027 C   0  0  0  0  0  0
    1.7845  -10.6846    3.0752 C   0  0  0  0  0  0
    3.1938  -10.4739    2.3552 C   0  0  0  0  0  0
    4.0866  -11.6472    1.7887 C   0  0  0  0  0  0
    3.5776  -13.1098    1.8844 C   0  0  0  0  0  0
    4.6537  -14.2459    1.6827 C   0  0  0  0  0  0
    4.1357  -15.6887    1.7320 C   0  0  0  0  0  0
    2.6302  -15.9422    1.4362 C   0  0  0  0  0  0
    2.1817  -17.2021    0.6382 C   0  0  0  0  0  0
    0.7154  -17.5934    0.7579 C   0  0  0  0  0  0
    2.5862  -17.0994   -0.7768 N   0  0  0  0  0  0
    2.0183  -16.0881    2.7432 O   0  0  0  0  0  0
    5.2883  -14.0335    0.4171 O   0  0  0  0  0  0
    2.0402   -9.3731    5.0535 O   0  0  0  0  0  0
    1.5818   -6.2388   -1.0976 O   0  0  0  0  0  0
    1.7852   -7.0026   -2.2023 C   0  0  0  0  0  0
    2.8626   -7.3176   -2.6707 O   0  0  0  0  0  0
    0.4506   -7.4848   -2.7000 C   0  0  0  0  0  0
    0.1689   -8.9454   -2.3130 C   0  0  0  0  0  0
   -1.3222   -9.2133   -2.0715 C   0  0  0  0  0  0
   -1.5499  -10.6237   -1.5792 C   0  0  0  0  0  0
   -1.2474  -11.0065   -0.4542 O   0  0  0  0  0  0
   -2.1194  -11.4232   -2.4931 O   0  0  0  0  0  0
    0.6723   -9.7973   -3.4864 C   0  0  0  0  0  0
    1.5805  -10.6075   -3.3810 O   0  0  0  0  0  0
    0.0651   -9.5442   -4.6540 O   0  0  0  0  0  0
    3.9986   -5.3245   -1.9354 O   0  0  0  0  0  0
    5.2764   -5.6100   -2.3869 C   0  0  0  0  0  0
    6.2155   -5.9232   -1.6670 O   0  0  0  0  0  0
    5.3967   -5.4917   -3.9120 C   0  0  0  0  0  0
    4.9556   -4.1252   -4.5224 C   0  0  0  0  0  0
    6.0460   -3.0790   -4.8171 C   0  0  0  0  0  0
    5.8348   -1.7880   -4.0801 C   0  0  0  0  0  0
    5.7683   -1.6627   -2.8650 O   0  0  0  0  0  0
    5.7396   -0.7351   -4.9063 O   0  0  0  0  0  0
    4.0860   -4.2398   -5.7805 C   0  0  0  0  0  0
    3.6729   -3.2718   -6.3880 O   0  0  0  0  0  0
    3.8928   -5.4943   -6.2390 O   0  0  0  0  0  0
    2.0132  -17.7310   -1.3347 H   0  0  0  0  0  0
    3.5397  -17.4565   -0.8707 H   0  0  0  0  0  0
    1.2970  -15.4240    2.7534 H   0  0  0  0  0  0
    4.5999  -14.0393   -0.2732 H   0  0  0  0  0  0
    1.8060   -8.5508    5.5155 H   0  0  0  0  0  0
   -2.1778  -11.0508   -3.3939 H   0  0  0  0  0  0
   -0.6919   -8.9102   -4.5936 H   0  0  0  0  0  0
    5.8565   -1.0803   -5.8165 H   0  0  0  0  0  0
    3.2682   -5.5737   -6.9938 H   0  0  0  0  0  0
  1  2  1  0  0  0
  2  3  1  0  0  0
  3  4  1  0  0  0
  4  5  1  0  0  0
  5  6  1  0  0  0
  5  7  1  0  0  0
  7  8  1  0  0  0
  7 39  1  0  0  0
  8  9  1  0  0  0
  8 27  1  0  0  0
  9 10  1  0  0  0
 10 11  1  0  0  0
 10 12  1  0  0  0
 12 13  1  0  0  0
 13 14  1  0  0  0
 13 26  1  0  0  0
 14 15  1  0  0  0
 15 16  1  0  0  0
 16 17  1  0  0  0
 17 18  1  0  0  0
 18 19  1  0  0  0
 18 25  1  0  0  0
 19 20  1  0  0  0
 20 21  1  0  0  0
 20 24  1  0  0  0
 21 22  1  0  0  0
 21 23  1  0  0  0
 23 51  1  0  0  0
 23 52  1  0  0  0
 24 53  1  0  0  0
 25 54  1  0  0  0
 26 55  1  0  0  0
 27 28  1  0  0  0
 28 29  2  0  0  0
 28 30  1  0  0  0
 30 31  1  0  0  0
 31 32  1  0  0  0
 31 36  1  0  0  0
 32 33  1  0  0  0
 33 34  2  0  0  0
 33 35  1  0  0  0
 35 56  1  0  0  0
 36 37  2  0  0  0
 36 38  1  0  0  0
 38 57  1  0  0  0
 39 40  1  0  0  0
 40 41  2  0  0  0
 40 42  1  0  0  0
 42 43  1  0  0  0
 43 44  1  0  0  0
 43 48  1  0  0  0
 44 45  1  0  0  0
 45 46  2  0  0  0
 45 47  1  0  0  0
 47 58  1  0  0  0
 48 49  2  0  0  0
 48 50  1  0  0  0
 50 59  1  0  0  0
M  END
>  <AUTHOR>
    GENERATED BY OPEN BABEL 2.4.1

>  <CHROM.1>
-58.71118521,-172.35108785,72.37597282,171.52256962,-29.40220643,103.49378186
-99.83672670,83.44987455,97.83919498,146.56464689,-44.10346469,49.65995040
39.79791989,164.61026998,1.77543563,-163.41407845,-178.03119367,22.62118417
-57.68693563,142.41048203,161.94085270,124.93253071,-159.54305800,-31.05009684
-101.89794297,147.50671585,-175.13139111,116.99311100,71.97860892,9.79892319
-6.02502815,4.18826040,54.90495675,96.80278922,-120.89620909,-179.04252512
58.84604281,-1.32215067,174.52078292,2.95682815,-8.07482750,-0.85362938,-0.92749539
1.15181807,2.21315449

>  <COMPND>
    UNNAMED

>  <MASTER>
        0    0    0    0    0    0    0    0  109    0  109    0

>  <Name>
FB1.pdb

>  <RI>
0

>  <Rbt.Current_Directory>
/home/fc/tossine/FB1_39/p3/1_clust05

>  <Rbt.Executable>
rbdock/0.1.0

>  <Rbt.Library>
librxdock.so/0.1.0

>  <Rbt.Parameter_File>
/cluster/rxdock/data/scripts/dock.prm

>  <Rbt.Receptor>
rx_3.prm

>  <SCORE>
52.4016

>  <SCORE.INTER>
17.7847

>  <SCORE.INTER.CONST>
1

>  <SCORE.INTER.POLAR>
-1.21038

>  <SCORE.INTER.REPUL>
0.818789

>  <SCORE.INTER.ROT>
32

>  <SCORE.INTER.VDW>
-19.594

>  <SCORE.INTER.norm>
0.355694

>  <SCORE.INTRA>
25.8638

>  <SCORE.INTRA.DIHEDRAL>
38.7561

>  <SCORE.INTRA.DIHEDRAL.0>
47.3121

>  <SCORE.INTRA.POLAR>
1.47808

>  <SCORE.INTRA.POLAR.0>
-1.47808

>  <SCORE.INTRA.REPUL>
0

>  <SCORE.INTRA.REPUL.0>
0

>  <SCORE.INTRA.VDW>
1.46031

>  <SCORE.INTRA.VDW.0>
-2.78316

>  <SCORE.INTRA.norm>
0.517276

>  <SCORE.RESTR>
8.75308

>  <SCORE.RESTR.CAVITY>
8.75308

>  <SCORE.RESTR.norm>
0.175062

>  <SCORE.SYSTEM>
0

>  <SCORE.SYSTEM.CONST>
0

>  <SCORE.SYSTEM.DIHEDRAL>
0

>  <SCORE.SYSTEM.norm>
0

>  <SCORE.heavy>
50

>  <SCORE.norm>
1.04803

$$$$
