FB1.pdb
  RxDock  09132000183D
librxdock.so/0.1.0
 59 58  0  0  0  0  0  0  0  0999 V2000
    1.4908   -5.2704    8.4667 C   0  0  0  0  0  0
    1.1430   -4.7782    7.0638 C   0  0  0  0  0  0
    2.0581   -5.4032    5.9979 C   0  0  0  0  0  0
    1.7004   -6.8724    5.6613 C   0  0  0  0  0  0
    2.3198   -7.4150    4.3263 C   0  0  0  0  0  0
    3.8601   -7.3497    4.4440 C   0  0  0  0  0  0
    1.8406   -8.8816    3.9560 C   0  0  0  0  0  0
    2.4835   -9.5466    2.6480 C   0  0  0  0  0  0
    1.7849  -10.6554    1.7477 C   0  0  0  0  0  0
    1.0022  -11.8434    2.5828 C   0  0  0  0  0  0
   -0.4571  -11.4285    2.7632 C   0  0  0  0  0  0
    1.0681  -13.3069    1.9515 C   0  0  0  0  0  0
    2.4287  -14.0091    1.4279 C   0  0  0  0  0  0
    2.5982  -14.5189   -0.0444 C   0  0  0  0  0  0
    2.1223  -13.5674   -1.2349 C   0  0  0  0  0  0
    1.9695  -12.0001   -1.1129 C   0  0  0  0  0  0
    1.4009  -11.1919   -2.3092 C   0  0  0  0  0  0
   -0.0994  -10.7184   -2.1912 C   0  0  0  0  0  0
   -0.5718   -9.6928   -3.2293 C   0  0  0  0  0  0
   -0.0856   -8.2225   -3.0873 C   0  0  0  0  0  0
   -0.3010   -7.2026   -4.2443 C   0  0  0  0  0  0
   -0.1777   -7.7482   -5.6601 C   0  0  0  0  0  0
   -1.5698   -6.4703   -4.0700 N   0  0  0  0  0  0
   -0.8446   -7.6905   -1.9716 O   0  0  0  0  0  0
   -0.9365  -11.8763   -2.2824 O   0  0  0  0  0  0
    3.4491  -13.0110    1.5991 O   0  0  0  0  0  0
    2.7544   -8.4543    1.7282 O   0  0  0  0  0  0
    1.6803   -7.8104    1.2019 C   0  0  0  0  0  0
    0.5805   -7.7107    1.7116 O   0  0  0  0  0  0
    2.1038   -7.1474   -0.0797 C   0  0  0  0  0  0
    1.5221   -5.7329   -0.2329 C   0  0  0  0  0  0
    2.5307   -4.6383    0.1386 C   0  0  0  0  0  0
    2.8617   -4.6795    1.6124 C   0  0  0  0  0  0
    2.1700   -5.2526    2.4472 O   0  0  0  0  0  0
    3.9915   -4.0276    1.9247 O   0  0  0  0  0  0
    1.1214   -5.5991   -1.7085 C   0  0  0  0  0  0
    1.8065   -6.0233   -2.6267 O   0  0  0  0  0  0
   -0.0230   -4.9322   -1.9125 O   0  0  0  0  0  0
    1.9183   -9.7830    5.1313 O   0  0  0  0  0  0
    0.7445  -10.1106    5.7893 C   0  0  0  0  0  0
    0.0525  -11.0876    5.5343 O   0  0  0  0  0  0
    0.3934   -9.1040    6.8930 C   0  0  0  0  0  0
    1.4319   -8.9787    8.0507 C   0  0  0  0  0  0
    0.9817   -8.2969    9.3556 C   0  0  0  0  0  0
    2.0223   -8.3539   10.4365 C   0  0  0  0  0  0
    1.9280   -8.9759   11.4857 O   0  0  0  0  0  0
    3.1205   -7.6468   10.1294 O   0  0  0  0  0  0
    2.1148  -10.2957    8.4401 C   0  0  0  0  0  0
    1.9077  -10.8597    9.4963 O   0  0  0  0  0  0
    2.8878  -10.8523    7.4841 O   0  0  0  0  0  0
   -1.8365   -6.4936   -3.0867 H   0  0  0  0  0  0
   -2.3107   -6.9804   -4.5561 H   0  0  0  0  0  0
   -0.5329   -8.2016   -1.1951 H   0  0  0  0  0  0
   -0.7680  -12.4357   -1.5019 H   0  0  0  0  0  0
    4.3063  -13.4183    1.3896 H   0  0  0  0  0  0
    4.2271   -4.0329    2.8723 H   0  0  0  0  0  0
   -0.4300   -5.0790   -2.8022 H   0  0  0  0  0  0
    2.9435   -7.2120    9.2686 H   0  0  0  0  0  0
    2.8696  -10.3981    6.6125 H   0  0  0  0  0  0
  1  2  1  0  0  0
  2  3  1  0  0  0
  3  4  1  0  0  0
  4  5  1  0  0  0
  5  6  1  0  0  0
  5  7  1  0  0  0
  7  8  1  0  0  0
  7 39  1  0  0  0
  8  9  1  0  0  0
  8 27  1  0  0  0
  9 10  1  0  0  0
 10 11  1  0  0  0
 10 12  1  0  0  0
 12 13  1  0  0  0
 13 14  1  0  0  0
 13 26  1  0  0  0
 14 15  1  0  0  0
 15 16  1  0  0  0
 16 17  1  0  0  0
 17 18  1  0  0  0
 18 19  1  0  0  0
 18 25  1  0  0  0
 19 20  1  0  0  0
 20 21  1  0  0  0
 20 24  1  0  0  0
 21 22  1  0  0  0
 21 23  1  0  0  0
 23 51  1  0  0  0
 23 52  1  0  0  0
 24 53  1  0  0  0
 25 54  1  0  0  0
 26 55  1  0  0  0
 27 28  1  0  0  0
 28 29  2  0  0  0
 28 30  1  0  0  0
 30 31  1  0  0  0
 31 32  1  0  0  0
 31 36  1  0  0  0
 32 33  1  0  0  0
 33 34  2  0  0  0
 33 35  1  0  0  0
 35 56  1  0  0  0
 36 37  2  0  0  0
 36 38  1  0  0  0
 38 57  1  0  0  0
 39 40  1  0  0  0
 40 41  2  0  0  0
 40 42  1  0  0  0
 42 43  1  0  0  0
 43 44  1  0  0  0
 43 48  1  0  0  0
 44 45  1  0  0  0
 45 46  2  0  0  0
 45 47  1  0  0  0
 47 58  1  0  0  0
 48 49  2  0  0  0
 48 50  1  0  0  0
 50 59  1  0  0  0
M  END
>  <AUTHOR>
    GENERATED BY OPEN BABEL 2.4.1

>  <CHROM.1>
76.34550435,163.55265718,60.86911638,-176.84759992,-152.84197838,103.52980219
-42.18138127,-67.68893686,91.92232749,47.97036973,-122.35132887,45.35491129
173.84304303,22.43680261,-175.62590723,103.00765898,168.15992823,-74.06191681
65.62396454,168.24064673,-35.92088243,65.72054613,23.04077238,26.88907770
-138.15998881,99.85879533,-66.49008953,-41.11859183,-17.98909587,179.61650952
-161.91173670,91.56097548,-61.64058001,-163.64819300,174.47913376,-110.57658947
-113.35171715,3.28028842,-5.15915740,1.44371189,-8.73042755,2.51095795,-0.14026814
-1.43533507,-0.14543205

>  <COMPND>
    UNNAMED

>  <MASTER>
        0    0    0    0    0    0    0    0  109    0  109    0

>  <Name>
FB1.pdb

>  <RI>
0

>  <Rbt.Current_Directory>
/home/fc/tossine/FB1_39/p3/1_clust05

>  <Rbt.Executable>
rbdock/0.1.0

>  <Rbt.Library>
librxdock.so/0.1.0

>  <Rbt.Parameter_File>
/cluster/rxdock/data/scripts/dock.prm

>  <Rbt.Receptor>
rx_1.prm

>  <SCORE>
31.5071

>  <SCORE.INTER>
10.273

>  <SCORE.INTER.CONST>
1

>  <SCORE.INTER.POLAR>
-0.69483

>  <SCORE.INTER.REPUL>
0.186595

>  <SCORE.INTER.ROT>
32

>  <SCORE.INTER.VDW>
-25.6976

>  <SCORE.INTER.norm>
0.20546

>  <SCORE.INTRA>
18.2094

>  <SCORE.INTRA.DIHEDRAL>
37.0619

>  <SCORE.INTRA.DIHEDRAL.0>
47.3121

>  <SCORE.INTRA.POLAR>
-0.552604

>  <SCORE.INTRA.POLAR.0>
-1.47808

>  <SCORE.INTRA.REPUL>
0

>  <SCORE.INTRA.REPUL.0>
0

>  <SCORE.INTRA.VDW>
1.55732

>  <SCORE.INTRA.VDW.0>
-2.78316

>  <SCORE.INTRA.norm>
0.364188

>  <SCORE.RESTR>
3.02472

>  <SCORE.RESTR.CAVITY>
3.02472

>  <SCORE.RESTR.norm>
0.0604943

>  <SCORE.SYSTEM>
0

>  <SCORE.SYSTEM.CONST>
0

>  <SCORE.SYSTEM.DIHEDRAL>
0

>  <SCORE.SYSTEM.norm>
0

>  <SCORE.heavy>
50

>  <SCORE.norm>
0.630143

$$$$
