FB1.pdb
  RxDock  10072008443D
librxdock.so/0.1.0
 59 58  0  0  0  0  0  0  0  0999 V2000
    2.0533  -10.2523    7.1927 C   0  0  0  0  0  0
    1.7822   -9.3403    5.9984 C   0  0  0  0  0  0
    1.0591  -10.0864    4.8649 C   0  0  0  0  0  0
    1.9061  -11.2184    4.2319 C   0  0  0  0  0  0
    1.3212  -11.8203    2.9067 C   0  0  0  0  0  0
   -0.1417  -12.2454    3.1708 C   0  0  0  0  0  0
    1.4102  -10.8315    1.6688 C   0  0  0  0  0  0
    1.2439  -11.4761    0.2118 C   0  0  0  0  0  0
    1.3968  -10.6876   -1.1605 C   0  0  0  0  0  0
    0.0777  -10.7424   -2.1495 C   0  0  0  0  0  0
   -1.1602  -10.3884   -1.3271 C   0  0  0  0  0  0
    0.1362   -9.8222   -3.4513 C   0  0  0  0  0  0
    0.6168   -8.2770   -3.4497 C   0  0  0  0  0  0
   -0.1422   -7.1620   -2.6517 C   0  0  0  0  0  0
    0.0020   -5.6491   -3.1412 C   0  0  0  0  0  0
    1.1225   -4.6556   -2.6392 C   0  0  0  0  0  0
    2.3416   -5.2107   -1.8563 C   0  0  0  0  0  0
    3.4267   -5.9873   -2.6982 C   0  0  0  0  0  0
    3.4790   -5.6690   -4.1976 C   0  0  0  0  0  0
    4.6940   -4.8629   -4.7383 C   0  0  0  0  0  0
    5.0674   -3.4837   -4.1190 C   0  0  0  0  0  0
    5.7670   -2.4943   -5.0405 C   0  0  0  0  0  0
    3.8957   -2.8636   -3.4717 N   0  0  0  0  0  0
    5.8416   -5.7123   -4.4829 O   0  0  0  0  0  0
    4.7104   -5.7082   -2.1289 O   0  0  0  0  0  0
    1.9412   -8.3026   -2.8913 O   0  0  0  0  0  0
    2.2266  -12.5434    0.1250 O   0  0  0  0  0  0
    2.0719  -13.4442   -0.8799 C   0  0  0  0  0  0
    1.4387  -13.2769   -1.9048 O   0  0  0  0  0  0
    2.9018  -14.6576   -0.5633 C   0  0  0  0  0  0
    2.8325  -15.0494    0.9213 C   0  0  0  0  0  0
    1.6821  -16.0190    1.2211 C   0  0  0  0  0  0
    1.8356  -17.3044    0.4417 C   0  0  0  0  0  0
    2.9097  -17.7159    0.0167 O   0  0  0  0  0  0
    0.6795  -17.9591    0.2579 O   0  0  0  0  0  0
    4.1776  -15.7138    1.2455 C   0  0  0  0  0  0
    4.5063  -16.0370    2.3769 O   0  0  0  0  0  0
    4.9877  -15.8671    0.1890 O   0  0  0  0  0  0
    0.5270   -9.6551    1.8586 O   0  0  0  0  0  0
    1.1131   -8.4151    2.0508 C   0  0  0  0  0  0
    1.2927   -7.8915    3.1426 O   0  0  0  0  0  0
    1.5230   -7.7520    0.7292 C   0  0  0  0  0  0
    1.9417   -6.2520    0.8253 C   0  0  0  0  0  0
    1.0145   -5.2898    1.5902 C   0  0  0  0  0  0
   -0.4246   -5.4115    1.1796 C   0  0  0  0  0  0
   -1.3784   -5.5023    1.9402 O   0  0  0  0  0  0
   -0.5814   -5.3925   -0.1528 O   0  0  0  0  0  0
    3.3652   -6.0194    1.3466 C   0  0  0  0  0  0
    4.2357   -5.4967    0.6789 O   0  0  0  0  0  0
    3.5667   -6.3369    2.6427 O   0  0  0  0  0  0
    3.0638   -3.0628   -4.0256 H   0  0  0  0  0  0
    4.0008   -1.8473   -3.5104 H   0  0  0  0  0  0
    6.5493   -5.3499   -5.0568 H   0  0  0  0  0  0
    4.7648   -6.1583   -1.2658 H   0  0  0  0  0  0
    2.5631   -8.0113   -3.5789 H   0  0  0  0  0  0
   -0.1234  -17.4678    0.5178 H   0  0  0  0  0  0
    5.8685  -16.2641    0.4018 H   0  0  0  0  0  0
   -1.4599   -5.7863   -0.3383 H   0  0  0  0  0  0
    4.4460   -6.0872    3.0041 H   0  0  0  0  0  0
  1  2  1  0  0  0
  2  3  1  0  0  0
  3  4  1  0  0  0
  4  5  1  0  0  0
  5  6  1  0  0  0
  5  7  1  0  0  0
  7  8  1  0  0  0
  7 39  1  0  0  0
  8  9  1  0  0  0
  8 27  1  0  0  0
  9 10  1  0  0  0
 10 11  1  0  0  0
 10 12  1  0  0  0
 12 13  1  0  0  0
 13 14  1  0  0  0
 13 26  1  0  0  0
 14 15  1  0  0  0
 15 16  1  0  0  0
 16 17  1  0  0  0
 17 18  1  0  0  0
 18 19  1  0  0  0
 18 25  1  0  0  0
 19 20  1  0  0  0
 20 21  1  0  0  0
 20 24  1  0  0  0
 21 22  1  0  0  0
 21 23  1  0  0  0
 23 51  1  0  0  0
 23 52  1  0  0  0
 24 53  1  0  0  0
 25 54  1  0  0  0
 26 55  1  0  0  0
 27 28  1  0  0  0
 28 29  2  0  0  0
 28 30  1  0  0  0
 30 31  1  0  0  0
 31 32  1  0  0  0
 31 36  1  0  0  0
 32 33  1  0  0  0
 33 34  2  0  0  0
 33 35  1  0  0  0
 35 56  1  0  0  0
 36 37  2  0  0  0
 36 38  1  0  0  0
 38 57  1  0  0  0
 39 40  1  0  0  0
 40 41  2  0  0  0
 40 42  1  0  0  0
 42 43  1  0  0  0
 43 44  1  0  0  0
 43 48  1  0  0  0
 44 45  1  0  0  0
 45 46  2  0  0  0
 45 47  1  0  0  0
 47 58  1  0  0  0
 48 49  2  0  0  0
 48 50  1  0  0  0
 50 59  1  0  0  0
M  END
>  <AUTHOR>
    GENERATED BY OPEN BABEL 2.4.1

>  <CHROM.1>
-64.89069842,-168.96673626,-52.95155236,162.76913545,-175.62347909,111.57453342
-122.47588820,164.56558094,49.10512360,-45.91459501,-62.42340723,-155.64304276
115.52433886,-89.91350418,13.31060714,74.22133964,22.86642514,109.05471025
70.41077184,-54.74361344,-151.87936361,162.97082699,-37.34967856,20.86728766
40.90460503,89.32556109,60.47310276,173.12192585,23.60292840,9.26938928,177.81646279
-97.57241256,168.95576353,-48.91094977,-48.78315834,116.94412233,132.39831063
160.30506904,-172.93899386,2.07355072,-9.38931801,-0.08839667,1.80229683
-1.26449167,3.00230218

>  <COMPND>
    UNNAMED

>  <MASTER>
        0    0    0    0    0    0    0    0  109    0  109    0

>  <Name>
FB1.pdb

>  <RI>
0

>  <Rbt.Current_Directory>
/home/fc/tossine/FB1_39/p3/1_clust05

>  <Rbt.Executable>
rbdock/0.1.0

>  <Rbt.Library>
librxdock.so/0.1.0

>  <Rbt.Parameter_File>
/cluster/rxdock/data/scripts/dock.prm

>  <Rbt.Receptor>
rx_2.prm

>  <SCORE>
37.8028

>  <SCORE.INTER>
4.3878

>  <SCORE.INTER.CONST>
1

>  <SCORE.INTER.POLAR>
-3.27338

>  <SCORE.INTER.REPUL>
0.701224

>  <SCORE.INTER.ROT>
32

>  <SCORE.INTER.VDW>
-25.3888

>  <SCORE.INTER.norm>
0.0877561

>  <SCORE.INTRA>
30.3201

>  <SCORE.INTRA.DIHEDRAL>
45.9347

>  <SCORE.INTRA.DIHEDRAL.0>
47.3121

>  <SCORE.INTRA.POLAR>
1.1963

>  <SCORE.INTRA.POLAR.0>
-1.47808

>  <SCORE.INTRA.REPUL>
0

>  <SCORE.INTRA.REPUL.0>
0

>  <SCORE.INTRA.VDW>
3.28538

>  <SCORE.INTRA.VDW.0>
-2.78316

>  <SCORE.INTRA.norm>
0.606403

>  <SCORE.RESTR>
3.09485

>  <SCORE.RESTR.CAVITY>
3.09485

>  <SCORE.RESTR.norm>
0.0618969

>  <SCORE.SYSTEM>
0

>  <SCORE.SYSTEM.CONST>
0

>  <SCORE.SYSTEM.DIHEDRAL>
0

>  <SCORE.SYSTEM.norm>
0

>  <SCORE.heavy>
50

>  <SCORE.norm>
0.756056

$$$$
