FB1.pdb
  RxDock  10072008123D
librxdock.so/0.1.0
 59 58  0  0  0  0  0  0  0  0999 V2000
    3.2632   -6.3331    4.2797 C   0  0  0  0  0  0
    2.1747   -6.9264    5.1711 C   0  0  0  0  0  0
    0.8402   -7.0705    4.4209 C   0  0  0  0  0  0
    0.8970   -8.0811    3.2483 C   0  0  0  0  0  0
    2.0835   -9.1050    3.3141 C   0  0  0  0  0  0
    1.6445  -10.3012    4.1899 C   0  0  0  0  0  0
    2.5758   -9.5963    1.8879 C   0  0  0  0  0  0
    1.5774  -10.5362    1.0597 C   0  0  0  0  0  0
    0.8177  -11.8045    1.6449 C   0  0  0  0  0  0
    1.7792  -12.9026    2.4137 C   0  0  0  0  0  0
    0.9669  -13.5640    3.5259 C   0  0  0  0  0  0
    2.4391  -14.0257    1.4929 C   0  0  0  0  0  0
    3.0059  -15.4364    2.0474 C   0  0  0  0  0  0
    3.5123  -16.5717    1.0931 C   0  0  0  0  0  0
    5.0235  -16.5130    0.5813 C   0  0  0  0  0  0
    6.1586  -17.5079    1.0465 C   0  0  0  0  0  0
    6.6476  -17.4754    2.5187 C   0  0  0  0  0  0
    8.1029  -18.0206    2.7909 C   0  0  0  0  0  0
    9.2589  -17.1759    2.2407 C   0  0  0  0  0  0
   10.6665  -17.3476    2.8790 C   0  0  0  0  0  0
   11.8644  -17.8620    2.0270 C   0  0  0  0  0  0
   11.5151  -18.5765    0.7289 C   0  0  0  0  0  0
   12.8413  -16.7826    1.7884 N   0  0  0  0  0  0
   11.0475  -16.0111    3.2941 O   0  0  0  0  0  0
    8.2683  -18.1504    4.2070 O   0  0  0  0  0  0
    4.1449  -15.0865    2.8517 O   0  0  0  0  0  0
    0.5141   -9.6720    0.5748 O   0  0  0  0  0  0
   -0.2481  -10.1448   -0.4453 C   0  0  0  0  0  0
   -1.0798  -11.0292   -0.3720 O   0  0  0  0  0  0
    0.0332   -9.3205   -1.6713 C   0  0  0  0  0  0
   -0.2399  -10.0885   -2.9744 C   0  0  0  0  0  0
    0.0692   -9.2550   -4.2247 C   0  0  0  0  0  0
   -1.0433   -8.2744   -4.5148 C   0  0  0  0  0  0
   -0.9627   -7.0715   -4.2906 O   0  0  0  0  0  0
   -2.1343   -8.8458   -5.0458 O   0  0  0  0  0  0
    0.6655  -11.3271   -2.9318 C   0  0  0  0  0  0
    0.2547  -12.4445   -2.6579 O   0  0  0  0  0  0
    1.9595  -11.0748   -3.1723 O   0  0  0  0  0  0
    3.0729   -8.4613    1.0728 O   0  0  0  0  0  0
    3.8701   -8.7379   -0.0254 C   0  0  0  0  0  0
    4.5169   -9.7664   -0.1751 O   0  0  0  0  0  0
    3.8589   -7.6013   -1.0561 C   0  0  0  0  0  0
    3.9196   -6.1560   -0.4713 C   0  0  0  0  0  0
    2.7433   -5.6781    0.3995 C   0  0  0  0  0  0
    1.4653   -5.5253   -0.3736 C   0  0  0  0  0  0
    1.3061   -5.8106   -1.5526 O   0  0  0  0  0  0
    0.4642   -5.0450    0.3796 O   0  0  0  0  0  0
    5.2096   -5.8306    0.2918 C   0  0  0  0  0  0
    5.7467   -6.6173    1.0464 O   0  0  0  0  0  0
    5.7773   -4.6439   -0.0095 O   0  0  0  0  0  0
   13.7835  -17.1680    1.8373 H   0  0  0  0  0  0
   12.7885  -16.1171    2.5629 H   0  0  0  0  0  0
   10.9467  -15.4639    2.4867 H   0  0  0  0  0  0
    9.1354  -18.5629    4.3755 H   0  0  0  0  0  0
    3.8521  -14.4531    3.5282 H   0  0  0  0  0  0
   -2.0691   -9.8084   -5.1962 H   0  0  0  0  0  0
    2.1413  -10.1707   -3.5306 H   0  0  0  0  0  0
    0.8463   -4.8426    1.2595 H   0  0  0  0  0  0
    5.7709   -4.4057   -0.9631 H   0  0  0  0  0  0
  1  2  1  0  0  0
  2  3  1  0  0  0
  3  4  1  0  0  0
  4  5  1  0  0  0
  5  6  1  0  0  0
  5  7  1  0  0  0
  7  8  1  0  0  0
  7 39  1  0  0  0
  8  9  1  0  0  0
  8 27  1  0  0  0
  9 10  1  0  0  0
 10 11  1  0  0  0
 10 12  1  0  0  0
 12 13  1  0  0  0
 13 14  1  0  0  0
 13 26  1  0  0  0
 14 15  1  0  0  0
 15 16  1  0  0  0
 16 17  1  0  0  0
 17 18  1  0  0  0
 18 19  1  0  0  0
 18 25  1  0  0  0
 19 20  1  0  0  0
 20 21  1  0  0  0
 20 24  1  0  0  0
 21 22  1  0  0  0
 21 23  1  0  0  0
 23 51  1  0  0  0
 23 52  1  0  0  0
 24 53  1  0  0  0
 25 54  1  0  0  0
 26 55  1  0  0  0
 27 28  1  0  0  0
 28 29  2  0  0  0
 28 30  1  0  0  0
 30 31  1  0  0  0
 31 32  1  0  0  0
 31 36  1  0  0  0
 32 33  1  0  0  0
 33 34  2  0  0  0
 33 35  1  0  0  0
 35 56  1  0  0  0
 36 37  2  0  0  0
 36 38  1  0  0  0
 38 57  1  0  0  0
 39 40  1  0  0  0
 40 41  2  0  0  0
 40 42  1  0  0  0
 42 43  1  0  0  0
 43 44  1  0  0  0
 43 48  1  0  0  0
 44 45  1  0  0  0
 45 46  2  0  0  0
 45 47  1  0  0  0
 47 58  1  0  0  0
 48 49  2  0  0  0
 48 50  1  0  0  0
 50 59  1  0  0  0
M  END
>  <AUTHOR>
    GENERATED BY OPEN BABEL 2.4.1

>  <CHROM.1>
64.83878441,19.48307357,85.54294509,-69.14773065,-47.48120840,162.29667167
-51.83293474,162.37188247,148.55286047,-159.67860366,173.59125165,85.00926528
55.93613564,109.44843270,-66.89691369,-156.00202427,68.85130933,158.38994557
174.92431924,117.75220508,-18.37360091,-53.53890685,141.72191517,72.09705380
154.23330661,-179.05874688,-78.68039896,102.66729983,104.73779619,-1.30544223
-12.22815819,-22.26759007,41.39119459,-64.01986293,-67.16044424,-41.07240499
4.02715782,4.31469257,-40.60156531,3.48895490,-11.14247268,0.68877296,-2.40952990
0.59074596,-2.90695702

>  <COMPND>
    UNNAMED

>  <MASTER>
        0    0    0    0    0    0    0    0  109    0  109    0

>  <Name>
FB1.pdb

>  <RI>
0

>  <Rbt.Current_Directory>
/home/fc/tossine/FB1_39/p3/1_clust05

>  <Rbt.Executable>
rbdock/0.1.0

>  <Rbt.Library>
librxdock.so/0.1.0

>  <Rbt.Parameter_File>
/cluster/rxdock/data/scripts/dock.prm

>  <Rbt.Receptor>
rx_1.prm

>  <SCORE>
38.1913

>  <SCORE.INTER>
6.30486

>  <SCORE.INTER.CONST>
1

>  <SCORE.INTER.POLAR>
-1.88558

>  <SCORE.INTER.REPUL>
0.77885

>  <SCORE.INTER.ROT>
32

>  <SCORE.INTER.VDW>
-28.5784

>  <SCORE.INTER.norm>
0.126097

>  <SCORE.INTRA>
31.3586

>  <SCORE.INTRA.DIHEDRAL>
41.8376

>  <SCORE.INTRA.DIHEDRAL.0>
47.3121

>  <SCORE.INTRA.POLAR>
1.43403

>  <SCORE.INTRA.POLAR.0>
-1.47808

>  <SCORE.INTRA.REPUL>
3.45863e-05

>  <SCORE.INTRA.REPUL.0>
0

>  <SCORE.INTRA.VDW>
5.56392

>  <SCORE.INTRA.VDW.0>
-2.78316

>  <SCORE.INTRA.norm>
0.627172

>  <SCORE.RESTR>
0.527863

>  <SCORE.RESTR.CAVITY>
0.527863

>  <SCORE.RESTR.norm>
0.0105573

>  <SCORE.SYSTEM>
0

>  <SCORE.SYSTEM.CONST>
0

>  <SCORE.SYSTEM.DIHEDRAL>
0

>  <SCORE.SYSTEM.norm>
0

>  <SCORE.heavy>
50

>  <SCORE.norm>
0.763827

$$$$
