FB1.pdb
  RxDock  10072007233D
librxdock.so/0.1.0
 59 58  0  0  0  0  0  0  0  0999 V2000
    0.3961   -8.0308    6.9331 C   0  0  0  0  0  0
   -0.0337   -7.9024    5.4736 C   0  0  0  0  0  0
    1.1444   -7.5139    4.5651 C   0  0  0  0  0  0
    0.9842   -6.1204    3.9079 C   0  0  0  0  0  0
    0.0472   -6.0859    2.6504 C   0  0  0  0  0  0
   -0.7598   -4.7673    2.6822 C   0  0  0  0  0  0
    0.8254   -6.2419    1.2763 C   0  0  0  0  0  0
    0.6102   -7.6103    0.4718 C   0  0  0  0  0  0
    0.4152   -7.7256   -1.1020 C   0  0  0  0  0  0
   -0.3264   -9.1067   -1.6157 C   0  0  0  0  0  0
   -0.5910   -8.9861   -3.1156 C   0  0  0  0  0  0
    0.4436  -10.4713   -1.3163 C   0  0  0  0  0  0
    1.9815  -10.7557   -1.7318 C   0  0  0  0  0  0
    2.8523  -11.8531   -1.0294 C   0  0  0  0  0  0
    2.1059  -13.0047   -0.2134 C   0  0  0  0  0  0
    1.7448  -12.9150    1.3216 C   0  0  0  0  0  0
    2.4677  -13.8437    2.3327 C   0  0  0  0  0  0
    4.0383  -13.7159    2.4098 C   0  0  0  0  0  0
    4.8390  -14.5720    1.4207 C   0  0  0  0  0  0
    4.9083  -16.1067    1.6618 C   0  0  0  0  0  0
    4.9826  -17.0941    0.4597 C   0  0  0  0  0  0
    3.7554  -17.9622    0.2191 C   0  0  0  0  0  0
    5.3810  -16.3906   -0.7743 N   0  0  0  0  0  0
    6.1459  -16.3089    2.3907 O   0  0  0  0  0  0
    4.3803  -12.3413    2.2021 O   0  0  0  0  0  0
    1.9243  -11.1495   -3.1132 O   0  0  0  0  0  0
    1.7750   -8.4334    0.7513 O   0  0  0  0  0  0
    1.8112   -9.0630    1.9544 C   0  0  0  0  0  0
    0.8500   -9.4165    2.6106 O   0  0  0  0  0  0
    3.2470   -9.3458    2.3007 C   0  0  0  0  0  0
    4.1709   -8.1527    2.0081 C   0  0  0  0  0  0
    3.7032   -6.8636    2.6956 C   0  0  0  0  0  0
    4.0798   -6.8588    4.1590 C   0  0  0  0  0  0
    4.0157   -7.8492    4.8792 O   0  0  0  0  0  0
    4.4955   -5.6622    4.5998 O   0  0  0  0  0  0
    5.5568   -8.5541    2.5315 C   0  0  0  0  0  0
    6.3278   -7.7627    3.0527 O   0  0  0  0  0  0
    5.8750   -9.8395    2.3252 O   0  0  0  0  0  0
    0.6280   -5.0534    0.4112 O   0  0  0  0  0  0
    1.3057   -4.9965   -0.7952 C   0  0  0  0  0  0
    0.8767   -4.4639   -1.8104 O   0  0  0  0  0  0
    2.6766   -5.6823   -0.7277 C   0  0  0  0  0  0
    3.7193   -5.2183   -1.7916 C   0  0  0  0  0  0
    5.1704   -5.7117   -1.6455 C   0  0  0  0  0  0
    5.8211   -5.2517   -0.3729 C   0  0  0  0  0  0
    6.3050   -4.1450   -0.1785 O   0  0  0  0  0  0
    5.8082   -6.1957    0.5804 O   0  0  0  0  0  0
    3.3005   -5.4673   -3.2458 C   0  0  0  0  0  0
    2.6931   -4.6487   -3.9074 O   0  0  0  0  0  0
    3.7446   -6.6210   -3.7872 O   0  0  0  0  0  0
    5.9993  -16.9920   -1.3170 H   0  0  0  0  0  0
    5.9551  -15.5838   -0.5195 H   0  0  0  0  0  0
    6.0830  -17.2251    2.7342 H   0  0  0  0  0  0
    4.1422  -12.1035    1.2871 H   0  0  0  0  0  0
    2.7609  -10.8906   -3.5346 H   0  0  0  0  0  0
    4.9130   -5.6655    5.4825 H   0  0  0  0  0  0
    5.0991  -10.4516    2.2786 H   0  0  0  0  0  0
    5.3302   -6.9660    0.2071 H   0  0  0  0  0  0
    3.5665   -6.7297   -4.7477 H   0  0  0  0  0  0
  1  2  1  0  0  0
  2  3  1  0  0  0
  3  4  1  0  0  0
  4  5  1  0  0  0
  5  6  1  0  0  0
  5  7  1  0  0  0
  7  8  1  0  0  0
  7 39  1  0  0  0
  8  9  1  0  0  0
  8 27  1  0  0  0
  9 10  1  0  0  0
 10 11  1  0  0  0
 10 12  1  0  0  0
 12 13  1  0  0  0
 13 14  1  0  0  0
 13 26  1  0  0  0
 14 15  1  0  0  0
 15 16  1  0  0  0
 16 17  1  0  0  0
 17 18  1  0  0  0
 18 19  1  0  0  0
 18 25  1  0  0  0
 19 20  1  0  0  0
 20 21  1  0  0  0
 20 24  1  0  0  0
 21 22  1  0  0  0
 21 23  1  0  0  0
 23 51  1  0  0  0
 23 52  1  0  0  0
 24 53  1  0  0  0
 25 54  1  0  0  0
 26 55  1  0  0  0
 27 28  1  0  0  0
 28 29  2  0  0  0
 28 30  1  0  0  0
 30 31  1  0  0  0
 31 32  1  0  0  0
 31 36  1  0  0  0
 32 33  1  0  0  0
 33 34  2  0  0  0
 33 35  1  0  0  0
 35 56  1  0  0  0
 36 37  2  0  0  0
 36 38  1  0  0  0
 38 57  1  0  0  0
 39 40  1  0  0  0
 40 41  2  0  0  0
 40 42  1  0  0  0
 42 43  1  0  0  0
 43 44  1  0  0  0
 43 48  1  0  0  0
 44 45  1  0  0  0
 45 46  2  0  0  0
 45 47  1  0  0  0
 47 58  1  0  0  0
 48 49  2  0  0  0
 48 50  1  0  0  0
 50 59  1  0  0  0
M  END
>  <AUTHOR>
    GENERATED BY OPEN BABEL 2.4.1

>  <CHROM.1>
-115.20335871,-79.84311815,142.17509368,110.27463712,138.18280022,176.28444136
-158.25124445,77.89141964,173.12090587,-52.98631994,158.59310246,18.91032430
150.91945961,-90.14848035,-112.01972513,59.42553112,-87.07021803,-72.44490386
-66.14460818,146.95238697,-110.98783698,166.37213496,142.17917443,28.11680764
43.63236628,54.65000449,78.58438712,-143.90354146,-39.55113402,-168.20351318
-27.77371925,147.24740330,-157.20854554,171.04693860,-62.06383224,90.87385079
-79.99744800,-2.17342615,-173.05970864,2.89305706,-9.01513808,0.89592552
-2.95055446,1.37115948,-1.83993359

>  <COMPND>
    UNNAMED

>  <MASTER>
        0    0    0    0    0    0    0    0  109    0  109    0

>  <Name>
FB1.pdb

>  <RI>
0

>  <Rbt.Current_Directory>
/home/fc/tossine/FB1_39/p3/1_clust05

>  <Rbt.Executable>
rbdock/0.1.0

>  <Rbt.Library>
librxdock.so/0.1.0

>  <Rbt.Parameter_File>
/cluster/rxdock/data/scripts/dock.prm

>  <Rbt.Receptor>
rx_0.prm

>  <SCORE>
49.911

>  <SCORE.INTER>
18.2401

>  <SCORE.INTER.CONST>
1

>  <SCORE.INTER.POLAR>
-1.64465

>  <SCORE.INTER.REPUL>
0.281928

>  <SCORE.INTER.ROT>
32

>  <SCORE.INTER.VDW>
-14.9777

>  <SCORE.INTER.norm>
0.364802

>  <SCORE.INTRA>
29.1972

>  <SCORE.INTRA.DIHEDRAL>
41.56

>  <SCORE.INTRA.DIHEDRAL.0>
47.3121

>  <SCORE.INTRA.POLAR>
0.495723

>  <SCORE.INTRA.POLAR.0>
-1.47808

>  <SCORE.INTRA.REPUL>
0

>  <SCORE.INTRA.REPUL.0>
0

>  <SCORE.INTRA.VDW>
6.73172

>  <SCORE.INTRA.VDW.0>
-2.78316

>  <SCORE.INTRA.norm>
0.583943

>  <SCORE.RESTR>
2.47377

>  <SCORE.RESTR.CAVITY>
2.47377

>  <SCORE.RESTR.norm>
0.0494754

>  <SCORE.SYSTEM>
0

>  <SCORE.SYSTEM.CONST>
0

>  <SCORE.SYSTEM.DIHEDRAL>
0

>  <SCORE.SYSTEM.norm>
0

>  <SCORE.heavy>
50

>  <SCORE.norm>
0.998221

$$$$
