FB1.pdb
  RxDock  10072009513D
librxdock.so/0.1.0
 59 58  0  0  0  0  0  0  0  0999 V2000
    1.9268  -15.0339    0.5888 C   0  0  0  0  0  0
    2.1980  -14.8060   -0.8965 C   0  0  0  0  0  0
    2.1189  -13.3160   -1.2676 C   0  0  0  0  0  0
    3.2378  -12.4591   -0.6246 C   0  0  0  0  0  0
    2.8207  -11.6998    0.6830 C   0  0  0  0  0  0
    3.7917  -12.1110    1.8139 C   0  0  0  0  0  0
    2.7816  -10.1225    0.5142 C   0  0  0  0  0  0
    2.4179   -9.5570   -0.9398 C   0  0  0  0  0  0
    0.9804   -9.0484   -1.3905 C   0  0  0  0  0  0
   -0.0696  -10.2353   -1.8489 C   0  0  0  0  0  0
   -0.7596  -10.7815   -0.6000 C   0  0  0  0  0  0
   -1.1679   -9.8233   -2.9300 C   0  0  0  0  0  0
   -0.8238   -9.1705   -4.3701 C   0  0  0  0  0  0
   -1.9052   -8.4489   -5.2454 C   0  0  0  0  0  0
   -1.5177   -8.0331   -6.7374 C   0  0  0  0  0  0
   -1.4699   -9.0370   -7.9557 C   0  0  0  0  0  0
   -0.4486   -8.8026   -9.1000 C   0  0  0  0  0  0
    1.0781   -8.8653   -8.7070 C   0  0  0  0  0  0
    2.0818   -8.7689   -9.8628 C   0  0  0  0  0  0
    2.0888   -7.4762  -10.7273 C   0  0  0  0  0  0
    1.4181   -7.4605  -12.1327 C   0  0  0  0  0  0
    1.3438   -6.1108  -12.8329 C   0  0  0  0  0  0
    2.0203   -8.4791  -13.0138 N   0  0  0  0  0  0
    1.3451   -6.5070   -9.9454 O   0  0  0  0  0  0
    1.3412   -7.8009   -7.7862 O   0  0  0  0  0  0
    0.1663   -8.1657   -4.0933 O   0  0  0  0  0  0
    3.2894   -8.4152   -1.1615 O   0  0  0  0  0  0
    3.1839   -7.3800   -0.2883 C   0  0  0  0  0  0
    2.9898   -7.4659    0.9093 O   0  0  0  0  0  0
    3.4491   -6.1005   -1.0327 C   0  0  0  0  0  0
    4.1528   -5.0465   -0.1630 C   0  0  0  0  0  0
    3.3971   -4.7595    1.1408 C   0  0  0  0  0  0
    1.9189   -4.5775    0.8854 C   0  0  0  0  0  0
    1.4393   -4.4068   -0.2302 O   0  0  0  0  0  0
    1.1746   -4.6222    2.0002 O   0  0  0  0  0  0
    5.5426   -5.6177    0.1502 C   0  0  0  0  0  0
    5.7374   -6.4655    1.0079 O   0  0  0  0  0  0
    6.5380   -5.0730   -0.5629 O   0  0  0  0  0  0
    1.9611   -9.4905    1.5759 O   0  0  0  0  0  0
    2.5452   -9.2587    2.8101 C   0  0  0  0  0  0
    3.7481   -9.1331    2.9986 O   0  0  0  0  0  0
    1.5098   -9.1729    3.9392 C   0  0  0  0  0  0
    1.3687  -10.4481    4.8272 C   0  0  0  0  0  0
    1.5247  -10.2895    6.3507 C   0  0  0  0  0  0
    1.9244  -11.5647    7.0353 C   0  0  0  0  0  0
    1.4394  -12.0014    8.0700 O   0  0  0  0  0  0
    2.8896  -12.2214    6.3739 O   0  0  0  0  0  0
    0.0874  -11.2554    4.5848 C   0  0  0  0  0  0
    0.0927  -12.3799    4.1241 O   0  0  0  0  0  0
   -1.0525  -10.6768    5.0175 O   0  0  0  0  0  0
    1.8535   -8.2210  -13.9855 H   0  0  0  0  0  0
    1.5178   -9.3603  -12.8854 H   0  0  0  0  0  0
    1.5705   -5.6412  -10.3466 H   0  0  0  0  0  0
    1.2428   -6.9557   -8.2621 H   0  0  0  0  0  0
    0.8183   -8.1795   -4.8138 H   0  0  0  0  0  0
    0.2090   -4.5925    1.8580 H   0  0  0  0  0  0
    6.2640   -4.3155   -1.1373 H   0  0  0  0  0  0
    3.0769  -13.0364    6.8859 H   0  0  0  0  0  0
   -1.8392  -11.2658    5.0415 H   0  0  0  0  0  0
  1  2  1  0  0  0
  2  3  1  0  0  0
  3  4  1  0  0  0
  4  5  1  0  0  0
  5  6  1  0  0  0
  5  7  1  0  0  0
  7  8  1  0  0  0
  7 39  1  0  0  0
  8  9  1  0  0  0
  8 27  1  0  0  0
  9 10  1  0  0  0
 10 11  1  0  0  0
 10 12  1  0  0  0
 12 13  1  0  0  0
 13 14  1  0  0  0
 13 26  1  0  0  0
 14 15  1  0  0  0
 15 16  1  0  0  0
 16 17  1  0  0  0
 17 18  1  0  0  0
 18 19  1  0  0  0
 18 25  1  0  0  0
 19 20  1  0  0  0
 20 21  1  0  0  0
 20 24  1  0  0  0
 21 22  1  0  0  0
 21 23  1  0  0  0
 23 51  1  0  0  0
 23 52  1  0  0  0
 24 53  1  0  0  0
 25 54  1  0  0  0
 26 55  1  0  0  0
 27 28  1  0  0  0
 28 29  2  0  0  0
 28 30  1  0  0  0
 30 31  1  0  0  0
 31 32  1  0  0  0
 31 36  1  0  0  0
 32 33  1  0  0  0
 33 34  2  0  0  0
 33 35  1  0  0  0
 35 56  1  0  0  0
 36 37  2  0  0  0
 36 38  1  0  0  0
 38 57  1  0  0  0
 39 40  1  0  0  0
 40 41  2  0  0  0
 40 42  1  0  0  0
 42 43  1  0  0  0
 43 44  1  0  0  0
 43 48  1  0  0  0
 44 45  1  0  0  0
 45 46  2  0  0  0
 45 47  1  0  0  0
 47 58  1  0  0  0
 48 49  2  0  0  0
 48 50  1  0  0  0
 50 59  1  0  0  0
M  END
>  <AUTHOR>
    GENERATED BY OPEN BABEL 2.4.1

>  <CHROM.1>
66.43556111,-97.83925995,123.70170374,30.24075527,98.65510493,82.25196322
-82.14689999,-60.30672290,85.16634705,55.07071963,-163.99285793,-171.02029832
141.30260278,78.13748760,-148.14957764,62.61344542,174.26129199,61.45938944
-67.21261859,-102.02323610,173.47722194,163.72697281,-157.69424235,37.50192891
-146.36133272,-54.44751221,-45.90181451,-78.86046105,-13.96576554,-174.44195138
5.46350911,24.06521094,101.56639390,125.47811625,-156.63188991,114.30166034
-135.36844798,-179.47607915,-167.32133183,1.76026190,-8.98117215,-1.38311517
1.39257101,1.13883030,1.92445406

>  <COMPND>
    UNNAMED

>  <MASTER>
        0    0    0    0    0    0    0    0  109    0  109    0

>  <Name>
FB1.pdb

>  <RI>
0

>  <Rbt.Current_Directory>
/home/fc/tossine/FB1_39/p3/1_clust05

>  <Rbt.Executable>
rbdock/0.1.0

>  <Rbt.Library>
librxdock.so/0.1.0

>  <Rbt.Parameter_File>
/cluster/rxdock/data/scripts/dock.prm

>  <Rbt.Receptor>
rx_4.prm

>  <SCORE>
27.258

>  <SCORE.INTER>
4.10181

>  <SCORE.INTER.CONST>
1

>  <SCORE.INTER.POLAR>
-3.09275

>  <SCORE.INTER.REPUL>
0.596223

>  <SCORE.INTER.ROT>
32

>  <SCORE.INTER.VDW>
-25.764

>  <SCORE.INTER.norm>
0.0820362

>  <SCORE.INTRA>
17.9721

>  <SCORE.INTRA.DIHEDRAL>
27.8617

>  <SCORE.INTRA.DIHEDRAL.0>
47.3121

>  <SCORE.INTRA.POLAR>
0.808926

>  <SCORE.INTRA.POLAR.0>
-1.47808

>  <SCORE.INTRA.REPUL>
0

>  <SCORE.INTRA.REPUL.0>
0

>  <SCORE.INTRA.VDW>
1.29093

>  <SCORE.INTRA.VDW.0>
-2.78316

>  <SCORE.INTRA.norm>
0.359443

>  <SCORE.RESTR>
5.18403

>  <SCORE.RESTR.CAVITY>
5.18403

>  <SCORE.RESTR.norm>
0.103681

>  <SCORE.SYSTEM>
0

>  <SCORE.SYSTEM.CONST>
0

>  <SCORE.SYSTEM.DIHEDRAL>
0

>  <SCORE.SYSTEM.norm>
0

>  <SCORE.heavy>
50

>  <SCORE.norm>
0.545159

$$$$
