FB1.pdb
  RxDock  09132000543D
librxdock.so/0.1.0
 59 58  0  0  0  0  0  0  0  0999 V2000
    4.8275  -14.4937    1.2243 C   0  0  0  0  0  0
    3.5524  -14.1964    0.4387 C   0  0  0  0  0  0
    3.4544  -12.7111    0.0532 C   0  0  0  0  0  0
    2.1535  -12.3554   -0.7089 C   0  0  0  0  0  0
    2.1730  -10.9673   -1.4390 C   0  0  0  0  0  0
    0.8640  -10.8268   -2.2499 C   0  0  0  0  0  0
    2.3660   -9.7371   -0.4555 C   0  0  0  0  0  0
    2.8984   -8.3701   -1.0991 C   0  0  0  0  0  0
    2.6109   -7.8859   -2.5860 C   0  0  0  0  0  0
    1.1328   -7.1926   -2.8225 C   0  0  0  0  0  0
    0.9124   -7.0205   -4.3245 C   0  0  0  0  0  0
   -0.1128   -7.9573   -2.1833 C   0  0  0  0  0  0
   -1.6503   -7.7175   -2.6274 C   0  0  0  0  0  0
   -2.2265   -6.2904   -2.9232 C   0  0  0  0  0  0
   -1.5098   -5.4004   -4.0383 C   0  0  0  0  0  0
   -2.2737   -4.4571   -5.0488 C   0  0  0  0  0  0
   -2.5448   -4.9467   -6.4959 C   0  0  0  0  0  0
   -3.2195   -6.3649   -6.6461 C   0  0  0  0  0  0
   -3.9420   -6.6366   -7.9715 C   0  0  0  0  0  0
   -5.4191   -6.1719   -8.1148 C   0  0  0  0  0  0
   -6.5037   -7.1421   -8.6695 C   0  0  0  0  0  0
   -7.0562   -6.8218  -10.0514 C   0  0  0  0  0  0
   -6.0432   -8.5418   -8.5971 N   0  0  0  0  0  0
   -5.8425   -5.8701   -6.7607 O   0  0  0  0  0  0
   -2.2035   -7.3582   -6.4701 O   0  0  0  0  0  0
   -1.7967   -8.4440   -3.8592 O   0  0  0  0  0  0
    2.3789   -7.2991   -0.2651 O   0  0  0  0  0  0
    2.8802   -6.0543   -0.4764 C   0  0  0  0  0  0
    3.3539   -5.6364   -1.5159 O   0  0  0  0  0  0
    2.6604   -5.2355    0.7656 C   0  0  0  0  0  0
    3.9349   -4.5119    1.2288 C   0  0  0  0  0  0
    4.2958   -3.3221    0.3302 C   0  0  0  0  0  0
    5.7491   -3.3704   -0.0807 C   0  0  0  0  0  0
    6.4323   -2.3711   -0.2763 O   0  0  0  0  0  0
    6.2264   -4.6171   -0.2110 O   0  0  0  0  0  0
    3.6484   -4.0246    2.6558 C   0  0  0  0  0  0
    3.6828   -2.8466    2.9778 O   0  0  0  0  0  0
    3.4043   -5.0048    3.5364 O   0  0  0  0  0  0
    1.1582   -9.5237    0.3785 O   0  0  0  0  0  0
    1.3237   -9.3230    1.7388 C   0  0  0  0  0  0
    0.7763   -8.4382    2.3838 O   0  0  0  0  0  0
    2.2817  -10.3435    2.3673 C   0  0  0  0  0  0
    1.7528  -11.0745    3.6402 C   0  0  0  0  0  0
    0.2855  -11.5409    3.6493 C   0  0  0  0  0  0
   -0.1507  -12.1304    2.3391 C   0  0  0  0  0  0
   -1.2316  -11.9439    1.7973 O   0  0  0  0  0  0
    0.7973  -12.8985    1.7809 O   0  0  0  0  0  0
    2.6087  -12.2633    4.0947 C   0  0  0  0  0  0
    2.9618  -12.4203    5.2468 O   0  0  0  0  0  0
    2.8602  -13.1917    3.1482 O   0  0  0  0  0  0
   -5.0593   -8.5837   -8.8591 H   0  0  0  0  0  0
   -6.5303   -9.0834   -9.3147 H   0  0  0  0  0  0
   -6.7903   -5.6338   -6.8455 H   0  0  0  0  0  0
   -2.1607   -7.5850   -5.5229 H   0  0  0  0  0  0
   -2.7454   -8.5904   -4.0110 H   0  0  0  0  0  0
    7.1401   -4.6801   -0.5494 H   0  0  0  0  0  0
    3.2248   -4.6928    4.4580 H   0  0  0  0  0  0
    0.4096  -13.2735    0.9621 H   0  0  0  0  0  0
    2.3450  -13.0936    2.3167 H   0  0  0  0  0  0
  1  2  1  0  0  0
  2  3  1  0  0  0
  3  4  1  0  0  0
  4  5  1  0  0  0
  5  6  1  0  0  0
  5  7  1  0  0  0
  7  8  1  0  0  0
  7 39  1  0  0  0
  8  9  1  0  0  0
  8 27  1  0  0  0
  9 10  1  0  0  0
 10 11  1  0  0  0
 10 12  1  0  0  0
 12 13  1  0  0  0
 13 14  1  0  0  0
 13 26  1  0  0  0
 14 15  1  0  0  0
 15 16  1  0  0  0
 16 17  1  0  0  0
 17 18  1  0  0  0
 18 19  1  0  0  0
 18 25  1  0  0  0
 19 20  1  0  0  0
 20 21  1  0  0  0
 20 24  1  0  0  0
 21 22  1  0  0  0
 21 23  1  0  0  0
 23 51  1  0  0  0
 23 52  1  0  0  0
 24 53  1  0  0  0
 25 54  1  0  0  0
 26 55  1  0  0  0
 27 28  1  0  0  0
 28 29  2  0  0  0
 28 30  1  0  0  0
 30 31  1  0  0  0
 31 32  1  0  0  0
 31 36  1  0  0  0
 32 33  1  0  0  0
 33 34  2  0  0  0
 33 35  1  0  0  0
 35 56  1  0  0  0
 36 37  2  0  0  0
 36 38  1  0  0  0
 38 57  1  0  0  0
 39 40  1  0  0  0
 40 41  2  0  0  0
 40 42  1  0  0  0
 42 43  1  0  0  0
 43 44  1  0  0  0
 43 48  1  0  0  0
 44 45  1  0  0  0
 45 46  2  0  0  0
 45 47  1  0  0  0
 47 58  1  0  0  0
 48 49  2  0  0  0
 48 50  1  0  0  0
 50 59  1  0  0  0
M  END
>  <AUTHOR>
    GENERATED BY OPEN BABEL 2.4.1

>  <CHROM.1>
-178.23622783,-164.84220002,174.86016556,159.46915742,30.80365326,133.43386365
80.24030586,169.13598622,-169.77322691,-161.73914531,-41.22126010,56.83553968
160.92130516,142.26743773,-99.58539009,51.02539473,158.49413965,-85.37058070
90.09647997,-131.78564164,-110.10262359,-176.41757349,-40.43393293,26.14021965
130.51023715,73.42553772,-130.73595684,-120.32184790,-147.73937233,174.98670401
179.64019653,133.04577113,-129.30282328,41.55439275,41.03333939,131.86955954
-139.12387553,177.12197010,-10.19763349,0.75824972,-8.11429521,-1.27324229
0.57057633,0.77471891,2.71342742

>  <COMPND>
    UNNAMED

>  <MASTER>
        0    0    0    0    0    0    0    0  109    0  109    0

>  <Name>
FB1.pdb

>  <RI>
0

>  <Rbt.Current_Directory>
/home/fc/tossine/FB1_39/p3/1_clust05

>  <Rbt.Executable>
rbdock/0.1.0

>  <Rbt.Library>
librxdock.so/0.1.0

>  <Rbt.Parameter_File>
/cluster/rxdock/data/scripts/dock.prm

>  <Rbt.Receptor>
rx_3.prm

>  <SCORE>
49.7585

>  <SCORE.INTER>
19.4261

>  <SCORE.INTER.CONST>
1

>  <SCORE.INTER.POLAR>
-1.7061

>  <SCORE.INTER.REPUL>
0.557667

>  <SCORE.INTER.ROT>
32

>  <SCORE.INTER.VDW>
-14.9615

>  <SCORE.INTER.norm>
0.388522

>  <SCORE.INTRA>
21.3842

>  <SCORE.INTRA.DIHEDRAL>
35.205

>  <SCORE.INTRA.DIHEDRAL.0>
47.3121

>  <SCORE.INTRA.POLAR>
-0.120406

>  <SCORE.INTRA.POLAR.0>
-1.47808

>  <SCORE.INTRA.REPUL>
0

>  <SCORE.INTRA.REPUL.0>
0

>  <SCORE.INTRA.VDW>
4.19108

>  <SCORE.INTRA.VDW.0>
-2.78316

>  <SCORE.INTRA.norm>
0.427684

>  <SCORE.RESTR>
8.94823

>  <SCORE.RESTR.CAVITY>
8.94823

>  <SCORE.RESTR.norm>
0.178965

>  <SCORE.SYSTEM>
0

>  <SCORE.SYSTEM.CONST>
0

>  <SCORE.SYSTEM.DIHEDRAL>
0

>  <SCORE.SYSTEM.norm>
0

>  <SCORE.heavy>
50

>  <SCORE.norm>
0.99517

$$$$
