FB1.pdb
  RxDock  10072008053D
librxdock.so/0.1.0
 59 58  0  0  0  0  0  0  0  0999 V2000
   -1.4993  -11.5563    4.1855 C   0  0  0  0  0  0
   -1.6340  -12.4990    2.9919 C   0  0  0  0  0  0
   -0.2877  -13.1416    2.6192 C   0  0  0  0  0  0
    0.8243  -12.1091    2.3078 C   0  0  0  0  0  0
    0.9888  -11.7516    0.7894 C   0  0  0  0  0  0
   -0.0946  -10.7142    0.4147 C   0  0  0  0  0  0
    2.4367  -11.2197    0.4174 C   0  0  0  0  0  0
    3.3893  -10.7968    1.6339 C   0  0  0  0  0  0
    4.9382  -11.1384    1.7447 C   0  0  0  0  0  0
    5.2824  -12.6861    2.2004 C   0  0  0  0  0  0
    3.9668  -13.4359    2.4033 C   0  0  0  0  0  0
    6.2246  -13.5157    1.2162 C   0  0  0  0  0  0
    7.3658  -14.5512    1.7105 C   0  0  0  0  0  0
    8.6363  -14.0863    2.5016 C   0  0  0  0  0  0
    9.6164  -13.0332    1.8091 C   0  0  0  0  0  0
   11.1801  -13.2205    1.6886 C   0  0  0  0  0  0
   12.0579  -13.1622    2.9666 C   0  0  0  0  0  0
   12.6048  -14.5385    3.5103 C   0  0  0  0  0  0
   11.6454  -15.3518    4.3883 C   0  0  0  0  0  0
   11.6347  -15.0774    5.9189 C   0  0  0  0  0  0
   12.6763  -15.7617    6.8529 C   0  0  0  0  0  0
   12.4517  -15.6020    8.3500 C   0  0  0  0  0  0
   12.8503  -17.1821    6.4943 N   0  0  0  0  0  0
   11.8989  -13.6563    6.0395 O   0  0  0  0  0  0
   12.9813  -15.3397    2.3851 O   0  0  0  0  0  0
    6.6845  -15.4577    2.5940 O   0  0  0  0  0  0
    3.3345   -9.3463    1.7077 O   0  0  0  0  0  0
    4.1149   -8.6545    0.8372 C   0  0  0  0  0  0
    4.4876   -9.0372   -0.2555 O   0  0  0  0  0  0
    4.3630   -7.2845    1.4057 C   0  0  0  0  0  0
    4.1385   -6.1677    0.3738 C   0  0  0  0  0  0
    5.0898   -6.2740   -0.8251 C   0  0  0  0  0  0
    4.7352   -5.2658   -1.8933 C   0  0  0  0  0  0
    4.0717   -4.2569   -1.6803 O   0  0  0  0  0  0
    5.2187   -5.5785   -3.1047 O   0  0  0  0  0  0
    2.6842   -6.3128   -0.0952 C   0  0  0  0  0  0
    1.7899   -5.5614    0.2626 O   0  0  0  0  0  0
    2.4633   -7.3656   -0.8944 O   0  0  0  0  0  0
    3.1183  -12.1382   -0.5269 O   0  0  0  0  0  0
    2.5083  -13.3442   -0.8293 C   0  0  0  0  0  0
    1.5345  -13.4679   -1.5606 O   0  0  0  0  0  0
    3.1920  -14.5330   -0.1411 C   0  0  0  0  0  0
    2.4688  -15.9078   -0.2872 C   0  0  0  0  0  0
    3.3368  -17.1653   -0.4759 C   0  0  0  0  0  0
    4.5052  -17.2182    0.4656 C   0  0  0  0  0  0
    4.4825  -16.9092    1.6491 O   0  0  0  0  0  0
    5.6209  -17.6717   -0.1260 O   0  0  0  0  0  0
    1.4580  -16.2178    0.8238 C   0  0  0  0  0  0
    1.1440  -17.3501    1.1337 O   0  0  0  0  0  0
    1.0125  -15.1488    1.5167 O   0  0  0  0  0  0
   13.5864  -17.5848    7.0727 H   0  0  0  0  0  0
   13.2076  -17.2361    5.5378 H   0  0  0  0  0  0
   12.8353  -13.5554    5.7668 H   0  0  0  0  0  0
   13.4958  -16.1006    2.7120 H   0  0  0  0  0  0
    6.2894  -14.9369    3.3131 H   0  0  0  0  0  0
    5.0367   -4.9252   -3.8072 H   0  0  0  0  0  0
    3.2819   -7.7714   -1.2738 H   0  0  0  0  0  0
    6.3175  -17.6902    0.5638 H   0  0  0  0  0  0
    1.3854  -14.2830    1.2381 H   0  0  0  0  0  0
  1  2  1  0  0  0
  2  3  1  0  0  0
  3  4  1  0  0  0
  4  5  1  0  0  0
  5  6  1  0  0  0
  5  7  1  0  0  0
  7  8  1  0  0  0
  7 39  1  0  0  0
  8  9  1  0  0  0
  8 27  1  0  0  0
  9 10  1  0  0  0
 10 11  1  0  0  0
 10 12  1  0  0  0
 12 13  1  0  0  0
 13 14  1  0  0  0
 13 26  1  0  0  0
 14 15  1  0  0  0
 15 16  1  0  0  0
 16 17  1  0  0  0
 17 18  1  0  0  0
 18 19  1  0  0  0
 18 25  1  0  0  0
 19 20  1  0  0  0
 20 21  1  0  0  0
 20 24  1  0  0  0
 21 22  1  0  0  0
 21 23  1  0  0  0
 23 51  1  0  0  0
 23 52  1  0  0  0
 24 53  1  0  0  0
 25 54  1  0  0  0
 26 55  1  0  0  0
 27 28  1  0  0  0
 28 29  2  0  0  0
 28 30  1  0  0  0
 30 31  1  0  0  0
 31 32  1  0  0  0
 31 36  1  0  0  0
 32 33  1  0  0  0
 33 34  2  0  0  0
 33 35  1  0  0  0
 35 56  1  0  0  0
 36 37  2  0  0  0
 36 38  1  0  0  0
 38 57  1  0  0  0
 39 40  1  0  0  0
 40 41  2  0  0  0
 40 42  1  0  0  0
 42 43  1  0  0  0
 43 44  1  0  0  0
 43 48  1  0  0  0
 44 45  1  0  0  0
 45 46  2  0  0  0
 45 47  1  0  0  0
 47 58  1  0  0  0
 48 49  2  0  0  0
 48 50  1  0  0  0
 50 59  1  0  0  0
M  END
>  <AUTHOR>
    GENERATED BY OPEN BABEL 2.4.1

>  <CHROM.1>
-56.89389766,-94.35027839,80.67547831,-13.92198462,137.76949726,-6.79839642
-77.69545759,-80.74460802,0.28783122,141.87025332,-65.70911138,-59.61504530
-58.27791508,-129.40514238,-68.60399728,104.88900017,-82.80520180,-88.03046858
167.72965881,-83.71353860,-170.82312603,-69.62593926,175.71399008,27.06704700
-132.77201028,-61.74845766,173.22541257,104.90231945,20.48976270,-177.54688314
-15.40873423,74.49215058,172.91034118,141.81273935,45.27060522,-154.82542653
41.12352196,-178.76587368,-0.19589276,5.21909866,-12.38895739,1.55358820
2.48538501,-0.28524636,-0.25481402

>  <COMPND>
    UNNAMED

>  <MASTER>
        0    0    0    0    0    0    0    0  109    0  109    0

>  <Name>
FB1.pdb

>  <RI>
0

>  <Rbt.Current_Directory>
/home/fc/tossine/FB1_39/p3/1_clust05

>  <Rbt.Executable>
rbdock/0.1.0

>  <Rbt.Library>
librxdock.so/0.1.0

>  <Rbt.Parameter_File>
/cluster/rxdock/data/scripts/dock.prm

>  <Rbt.Receptor>
rx_1.prm

>  <SCORE>
112.523

>  <SCORE.INTER>
69.9856

>  <SCORE.INTER.CONST>
1

>  <SCORE.INTER.POLAR>
-1.01812

>  <SCORE.INTER.REPUL>
1.90932

>  <SCORE.INTER.ROT>
32

>  <SCORE.INTER.VDW>
26.5006

>  <SCORE.INTER.norm>
1.39971

>  <SCORE.INTRA>
40.3639

>  <SCORE.INTRA.DIHEDRAL>
50.7174

>  <SCORE.INTRA.DIHEDRAL.0>
47.3121

>  <SCORE.INTRA.POLAR>
1.47808

>  <SCORE.INTRA.POLAR.0>
-1.47808

>  <SCORE.INTRA.REPUL>
0

>  <SCORE.INTRA.REPUL.0>
0

>  <SCORE.INTRA.VDW>
9.97977

>  <SCORE.INTRA.VDW.0>
-2.78316

>  <SCORE.INTRA.norm>
0.807278

>  <SCORE.RESTR>
2.17341

>  <SCORE.RESTR.CAVITY>
2.17341

>  <SCORE.RESTR.norm>
0.0434683

>  <SCORE.SYSTEM>
0

>  <SCORE.SYSTEM.CONST>
0

>  <SCORE.SYSTEM.DIHEDRAL>
0

>  <SCORE.SYSTEM.norm>
0

>  <SCORE.heavy>
50

>  <SCORE.norm>
2.25046

$$$$
