FB1.pdb
  RxDock  10072008133D
librxdock.so/0.1.0
 59 58  0  0  0  0  0  0  0  0999 V2000
    2.0910  -13.0588    6.9597 C   0  0  0  0  0  0
    2.5541  -12.5364    5.6018 C   0  0  0  0  0  0
    3.5666  -13.4866    4.9413 C   0  0  0  0  0  0
    2.9141  -14.5189    3.9883 C   0  0  0  0  0  0
    2.4237  -13.9358    2.6172 C   0  0  0  0  0  0
    0.9093  -13.6440    2.7275 C   0  0  0  0  0  0
    3.2190  -12.6416    2.1586 C   0  0  0  0  0  0
    4.5732  -12.8757    1.3355 C   0  0  0  0  0  0
    5.9567  -12.1467    1.6233 C   0  0  0  0  0  0
    7.3017  -13.0405    1.2866 C   0  0  0  0  0  0
    7.0188  -13.8967    0.0533 C   0  0  0  0  0  0
    8.6539  -12.2221    1.0709 C   0  0  0  0  0  0
   10.1269  -12.7954    1.4176 C   0  0  0  0  0  0
   11.4365  -12.1381    0.8617 C   0  0  0  0  0  0
   11.7601  -10.6296    1.2725 C   0  0  0  0  0  0
   12.7436  -10.2173    2.4375 C   0  0  0  0  0  0
   12.1854   -9.4842    3.6859 C   0  0  0  0  0  0
   13.2444   -8.9880    4.7450 C   0  0  0  0  0  0
   12.9230   -9.2812    6.2158 C   0  0  0  0  0  0
   13.7411  -10.3855    6.9434 C   0  0  0  0  0  0
   13.3044  -10.8983    8.3476 C   0  0  0  0  0  0
   14.2937  -11.7945    9.0794 C   0  0  0  0  0  0
   12.8732   -9.7782    9.2053 N   0  0  0  0  0  0
   13.6486  -11.5438    6.0752 O   0  0  0  0  0  0
   14.5036   -9.5900    4.4259 O   0  0  0  0  0  0
   10.2350  -12.6959    2.8477 O   0  0  0  0  0  0
    4.8810  -14.2913    1.4538 O   0  0  0  0  0  0
    4.2359  -15.1356    0.6075 C   0  0  0  0  0  0
    3.1227  -14.9775    0.1435 O   0  0  0  0  0  0
    5.1697  -16.2599    0.2533 C   0  0  0  0  0  0
    5.0468  -17.4540    1.2132 C   0  0  0  0  0  0
    4.3074  -18.6416    0.5837 C   0  0  0  0  0  0
    2.9510  -18.2256    0.0637 C   0  0  0  0  0  0
    2.2840  -17.3218    0.5555 O   0  0  0  0  0  0
    2.5422  -18.9409   -0.9947 O   0  0  0  0  0  0
    6.4840  -17.8589    1.5690 C   0  0  0  0  0  0
    7.1275  -18.6713    0.9223 O   0  0  0  0  0  0
    6.9615  -17.2832    2.6810 O   0  0  0  0  0  0
    2.3213  -11.6722    1.4847 O   0  0  0  0  0  0
    2.1832  -10.4089    2.0353 C   0  0  0  0  0  0
    2.6048  -10.0793    3.1362 O   0  0  0  0  0  0
    1.4336   -9.4456    1.1056 C   0  0  0  0  0  0
    1.5338   -9.7604   -0.4193 C   0  0  0  0  0  0
    0.8199  -11.0184   -0.9467 C   0  0  0  0  0  0
    1.6351  -11.7767   -1.9541 C   0  0  0  0  0  0
    1.3790  -11.8818   -3.1457 O   0  0  0  0  0  0
    2.7270  -12.3380   -1.4128 O   0  0  0  0  0  0
    1.1393   -8.5972   -1.3378 C   0  0  0  0  0  0
    1.9454   -7.8035   -1.7814 O   0  0  0  0  0  0
   -0.1564   -8.5700   -1.7143 O   0  0  0  0  0  0
   13.1724   -8.9000    8.7835 H   0  0  0  0  0  0
   13.3807   -9.8311   10.0914 H   0  0  0  0  0  0
   12.7039  -11.8039    6.1109 H   0  0  0  0  0  0
   15.2021   -9.1049    4.9026 H   0  0  0  0  0  0
    9.5132  -13.2147    3.2406 H   0  0  0  0  0  0
    1.6618  -18.7028   -1.3435 H   0  0  0  0  0  0
    6.4341  -16.5098    3.0013 H   0  0  0  0  0  0
    2.8660  -11.9034   -0.5450 H   0  0  0  0  0  0
   -0.3862   -7.8825   -2.3782 H   0  0  0  0  0  0
  1  2  1  0  0  0
  2  3  1  0  0  0
  3  4  1  0  0  0
  4  5  1  0  0  0
  5  6  1  0  0  0
  5  7  1  0  0  0
  7  8  1  0  0  0
  7 39  1  0  0  0
  8  9  1  0  0  0
  8 27  1  0  0  0
  9 10  1  0  0  0
 10 11  1  0  0  0
 10 12  1  0  0  0
 12 13  1  0  0  0
 13 14  1  0  0  0
 13 26  1  0  0  0
 14 15  1  0  0  0
 15 16  1  0  0  0
 16 17  1  0  0  0
 17 18  1  0  0  0
 18 19  1  0  0  0
 18 25  1  0  0  0
 19 20  1  0  0  0
 20 21  1  0  0  0
 20 24  1  0  0  0
 21 22  1  0  0  0
 21 23  1  0  0  0
 23 51  1  0  0  0
 23 52  1  0  0  0
 24 53  1  0  0  0
 25 54  1  0  0  0
 26 55  1  0  0  0
 27 28  1  0  0  0
 28 29  2  0  0  0
 28 30  1  0  0  0
 30 31  1  0  0  0
 31 32  1  0  0  0
 31 36  1  0  0  0
 32 33  1  0  0  0
 33 34  2  0  0  0
 33 35  1  0  0  0
 35 56  1  0  0  0
 36 37  2  0  0  0
 36 38  1  0  0  0
 38 57  1  0  0  0
 39 40  1  0  0  0
 40 41  2  0  0  0
 40 42  1  0  0  0
 42 43  1  0  0  0
 43 44  1  0  0  0
 43 48  1  0  0  0
 44 45  1  0  0  0
 45 46  2  0  0  0
 45 47  1  0  0  0
 47 58  1  0  0  0
 48 49  2  0  0  0
 48 50  1  0  0  0
 50 59  1  0  0  0
M  END
>  <AUTHOR>
    GENERATED BY OPEN BABEL 2.4.1

>  <CHROM.1>
92.94399962,74.06827166,-97.37451854,86.47655079,-132.98248897,119.77438343
148.17494788,82.10534591,35.54336450,149.93659507,163.69493120,61.95450446
58.52030992,98.00351195,-114.93496446,-174.58990876,-134.14671210,107.23569219
164.13949362,-169.40495853,-169.65791429,-67.04095284,-14.15052838,-30.32659701
90.67092816,105.56390847,-54.88034508,-89.56328383,-30.05256282,179.08368612
-14.84441017,-10.24843369,-26.71511256,69.16310190,-138.53849033,93.13021861
-111.41768928,-16.07946082,-173.69136724,6.07525185,-12.73438392,2.12678714
2.92050248,0.46103490,-3.10156027

>  <COMPND>
    UNNAMED

>  <MASTER>
        0    0    0    0    0    0    0    0  109    0  109    0

>  <Name>
FB1.pdb

>  <RI>
0

>  <Rbt.Current_Directory>
/home/fc/tossine/FB1_39/p3/1_clust05

>  <Rbt.Executable>
rbdock/0.1.0

>  <Rbt.Library>
librxdock.so/0.1.0

>  <Rbt.Parameter_File>
/cluster/rxdock/data/scripts/dock.prm

>  <Rbt.Receptor>
rx_1.prm

>  <SCORE>
142.059

>  <SCORE.INTER>
108.133

>  <SCORE.INTER.CONST>
1

>  <SCORE.INTER.POLAR>
-0.898324

>  <SCORE.INTER.REPUL>
1.7746

>  <SCORE.INTER.ROT>
32

>  <SCORE.INTER.VDW>
64.9143

>  <SCORE.INTER.norm>
2.16266

>  <SCORE.INTRA>
31.3438

>  <SCORE.INTRA.DIHEDRAL>
43.2219

>  <SCORE.INTRA.DIHEDRAL.0>
47.3121

>  <SCORE.INTRA.POLAR>
0.487959

>  <SCORE.INTRA.POLAR.0>
-1.47808

>  <SCORE.INTRA.REPUL>
0

>  <SCORE.INTRA.REPUL.0>
0

>  <SCORE.INTRA.VDW>
8.07381

>  <SCORE.INTRA.VDW.0>
-2.78316

>  <SCORE.INTRA.norm>
0.626877

>  <SCORE.RESTR>
2.5821

>  <SCORE.RESTR.CAVITY>
2.5821

>  <SCORE.RESTR.norm>
0.0516421

>  <SCORE.SYSTEM>
0

>  <SCORE.SYSTEM.CONST>
0

>  <SCORE.SYSTEM.DIHEDRAL>
0

>  <SCORE.SYSTEM.norm>
0

>  <SCORE.heavy>
50

>  <SCORE.norm>
2.84118

$$$$
