FB1.pdb
  RxDock  10072009513D
librxdock.so/0.1.0
 59 58  0  0  0  0  0  0  0  0999 V2000
    6.8209   -2.6965   -0.0572 C   0  0  0  0  0  0
    5.4674   -2.6362    0.6469 C   0  0  0  0  0  0
    4.3113   -2.9626   -0.3129 C   0  0  0  0  0  0
    4.0590   -4.4816   -0.4817 C   0  0  0  0  0  0
    2.6734   -4.9856    0.0537 C   0  0  0  0  0  0
    1.5636   -4.1082   -0.5701 C   0  0  0  0  0  0
    2.4067   -6.5240   -0.2292 C   0  0  0  0  0  0
    1.6742   -7.3579    0.9258 C   0  0  0  0  0  0
    2.3556   -8.4911    1.8089 C   0  0  0  0  0  0
    3.9485   -8.7692    1.4823 C   0  0  0  0  0  0
    4.7741   -8.3416    2.6946 C   0  0  0  0  0  0
    4.3321  -10.2628    1.0739 C   0  0  0  0  0  0
    3.6893  -11.5832    1.7537 C   0  0  0  0  0  0
    2.4015  -12.2761    1.1902 C   0  0  0  0  0  0
    1.4474  -13.0470    2.2122 C   0  0  0  0  0  0
    0.8286  -12.3979    3.5123 C   0  0  0  0  0  0
    1.7628  -11.7086    4.5417 C   0  0  0  0  0  0
    1.0615  -10.8823    5.6883 C   0  0  0  0  0  0
    1.9913  -10.1753    6.6823 C   0  0  0  0  0  0
    1.4719   -9.9227    8.1262 C   0  0  0  0  0  0
    1.1408  -11.1176    9.0685 C   0  0  0  0  0  0
    1.9989  -12.3647    8.9083 C   0  0  0  0  0  0
    1.1027  -10.6811   10.4772 N   0  0  0  0  0  0
    2.5507   -9.2121    8.7858 O   0  0  0  0  0  0
    0.2210   -9.8996    5.0739 O   0  0  0  0  0  0
    4.7202  -12.5815    1.6689 O   0  0  0  0  0  0
    1.2019   -6.3824    1.8942 O   0  0  0  0  0  0
    0.1082   -5.6531    1.5519 C   0  0  0  0  0  0
   -0.4515   -5.6593    0.4720 O   0  0  0  0  0  0
   -0.3645   -4.9048    2.7677 C   0  0  0  0  0  0
   -0.9505   -5.8345    3.8422 C   0  0  0  0  0  0
   -0.2417   -5.6909    5.1951 C   0  0  0  0  0  0
    1.0958   -6.3941    5.1871 C   0  0  0  0  0  0
    1.4063   -7.2516    4.3674 O   0  0  0  0  0  0
    1.9183   -5.9890    6.1660 O   0  0  0  0  0  0
   -2.4282   -5.4423    3.9792 C   0  0  0  0  0  0
   -2.8113   -4.2824    3.9978 O   0  0  0  0  0  0
   -3.2642   -6.4791    4.1271 O   0  0  0  0  0  0
    1.7613   -6.7215   -1.5499 O   0  0  0  0  0  0
    1.5998   -8.0150   -2.0177 C   0  0  0  0  0  0
    2.0658   -9.0123   -1.4824 O   0  0  0  0  0  0
    0.7600   -8.0713   -3.3006 C   0  0  0  0  0  0
   -0.7711   -8.2942   -3.0987 C   0  0  0  0  0  0
   -1.6968   -8.0998   -4.3135 C   0  0  0  0  0  0
   -1.2960   -8.9340   -5.4958 C   0  0  0  0  0  0
   -0.1738   -8.9942   -5.9791 O   0  0  0  0  0  0
   -2.3170   -9.6535   -5.9860 O   0  0  0  0  0  0
   -1.1408   -9.6378   -2.4580 C   0  0  0  0  0  0
   -1.6365  -10.5537   -3.0841 O   0  0  0  0  0  0
   -0.7808   -9.7818   -1.1653 O   0  0  0  0  0  0
    1.7892   -9.9409   10.6162 H   0  0  0  0  0  0
    1.4238  -11.4522   11.0669 H   0  0  0  0  0  0
    2.8377   -8.5387    8.1335 H   0  0  0  0  0  0
   -0.5076  -10.3628    4.6210 H   0  0  0  0  0  0
    4.7734  -12.8813    0.7460 H   0  0  0  0  0  0
    1.5644   -5.2852    6.7430 H   0  0  0  0  0  0
   -2.8346   -7.3668    4.0477 H   0  0  0  0  0  0
   -1.9323  -10.2862   -6.6286 H   0  0  0  0  0  0
   -0.9694  -10.6630   -0.7728 H   0  0  0  0  0  0
  1  2  1  0  0  0
  2  3  1  0  0  0
  3  4  1  0  0  0
  4  5  1  0  0  0
  5  6  1  0  0  0
  5  7  1  0  0  0
  7  8  1  0  0  0
  7 39  1  0  0  0
  8  9  1  0  0  0
  8 27  1  0  0  0
  9 10  1  0  0  0
 10 11  1  0  0  0
 10 12  1  0  0  0
 12 13  1  0  0  0
 13 14  1  0  0  0
 13 26  1  0  0  0
 14 15  1  0  0  0
 15 16  1  0  0  0
 16 17  1  0  0  0
 17 18  1  0  0  0
 18 19  1  0  0  0
 18 25  1  0  0  0
 19 20  1  0  0  0
 20 21  1  0  0  0
 20 24  1  0  0  0
 21 22  1  0  0  0
 21 23  1  0  0  0
 23 51  1  0  0  0
 23 52  1  0  0  0
 24 53  1  0  0  0
 25 54  1  0  0  0
 26 55  1  0  0  0
 27 28  1  0  0  0
 28 29  2  0  0  0
 28 30  1  0  0  0
 30 31  1  0  0  0
 31 32  1  0  0  0
 31 36  1  0  0  0
 32 33  1  0  0  0
 33 34  2  0  0  0
 33 35  1  0  0  0
 35 56  1  0  0  0
 36 37  2  0  0  0
 36 38  1  0  0  0
 38 57  1  0  0  0
 39 40  1  0  0  0
 40 41  2  0  0  0
 40 42  1  0  0  0
 42 43  1  0  0  0
 43 44  1  0  0  0
 43 48  1  0  0  0
 44 45  1  0  0  0
 45 46  2  0  0  0
 45 47  1  0  0  0
 47 58  1  0  0  0
 48 49  2  0  0  0
 48 50  1  0  0  0
 50 59  1  0  0  0
M  END
>  <AUTHOR>
    GENERATED BY OPEN BABEL 2.4.1

>  <CHROM.1>
83.79092724,114.98049304,52.16824640,141.13758960,-110.82515529,172.68836605
1.03485674,75.10020340,113.18854461,-39.14757423,90.63636602,-150.36504832
-74.30730254,54.50105215,-53.60317757,170.33364692,-178.55550508,-152.20567874
67.17827175,64.08797272,33.21935201,44.50583599,-33.65973356,-6.33882273
-68.88565373,123.20675016,-76.70477643,-42.48279605,-18.34668247,-1.30070152
-5.24258251,-7.41231165,-92.67778377,168.83932028,54.83704328,-106.38398246
-50.66777816,-169.27263165,-176.42889637,1.23663437,-8.12564018,1.79220049
-2.02186176,1.33726346,2.21051348

>  <COMPND>
    UNNAMED

>  <MASTER>
        0    0    0    0    0    0    0    0  109    0  109    0

>  <Name>
FB1.pdb

>  <RI>
0

>  <Rbt.Current_Directory>
/home/fc/tossine/FB1_39/p3/1_clust05

>  <Rbt.Executable>
rbdock/0.1.0

>  <Rbt.Library>
librxdock.so/0.1.0

>  <Rbt.Parameter_File>
/cluster/rxdock/data/scripts/dock.prm

>  <Rbt.Receptor>
rx_4.prm

>  <SCORE>
30.8279

>  <SCORE.INTER>
9.38851

>  <SCORE.INTER.CONST>
1

>  <SCORE.INTER.POLAR>
-1.61943

>  <SCORE.INTER.REPUL>
0.165161

>  <SCORE.INTER.ROT>
32

>  <SCORE.INTER.VDW>
-23.3313

>  <SCORE.INTER.norm>
0.18777

>  <SCORE.INTRA>
16.756

>  <SCORE.INTRA.DIHEDRAL>
22.3609

>  <SCORE.INTRA.DIHEDRAL.0>
47.3121

>  <SCORE.INTRA.POLAR>
1.23724

>  <SCORE.INTRA.POLAR.0>
-1.47808

>  <SCORE.INTRA.REPUL>
0

>  <SCORE.INTRA.REPUL.0>
0

>  <SCORE.INTRA.VDW>
1.36895

>  <SCORE.INTRA.VDW.0>
-2.78316

>  <SCORE.INTRA.norm>
0.335121

>  <SCORE.RESTR>
4.68335

>  <SCORE.RESTR.CAVITY>
4.68335

>  <SCORE.RESTR.norm>
0.0936669

>  <SCORE.SYSTEM>
0

>  <SCORE.SYSTEM.CONST>
0

>  <SCORE.SYSTEM.DIHEDRAL>
0

>  <SCORE.SYSTEM.norm>
0

>  <SCORE.heavy>
50

>  <SCORE.norm>
0.616558

$$$$
