FB1.pdb
  RxDock  10072008443D
librxdock.so/0.1.0
 59 58  0  0  0  0  0  0  0  0999 V2000
    0.0910  -10.2865    3.9023 C   0  0  0  0  0  0
    0.7150   -9.1896    3.0428 C   0  0  0  0  0  0
    0.9294   -7.8932    3.8414 C   0  0  0  0  0  0
    1.5398   -6.7440    3.0009 C   0  0  0  0  0  0
    1.0657   -6.6933    1.5066 C   0  0  0  0  0  0
    0.0192   -5.5637    1.3673 C   0  0  0  0  0  0
    2.2528   -6.4978    0.4719 C   0  0  0  0  0  0
    3.6879   -7.0681    0.8978 C   0  0  0  0  0  0
    4.3720   -8.3692    0.2918 C   0  0  0  0  0  0
    4.2675   -9.7184    1.2353 C   0  0  0  0  0  0
    3.8611   -9.2938    2.6455 C   0  0  0  0  0  0
    3.2854  -10.8640    0.7177 C   0  0  0  0  0  0
    3.1644  -12.3294    1.3933 C   0  0  0  0  0  0
    3.1251  -13.6457    0.5436 C   0  0  0  0  0  0
    4.2180  -14.7713    0.8399 C   0  0  0  0  0  0
    4.8688  -15.0272    2.2560 C   0  0  0  0  0  0
    6.1493  -15.8968    2.3631 C   0  0  0  0  0  0
    7.4205  -15.2064    2.9930 C   0  0  0  0  0  0
    8.7016  -16.0487    3.0326 C   0  0  0  0  0  0
    9.9473  -15.5332    2.2575 C   0  0  0  0  0  0
   10.8566  -14.4258    2.8677 C   0  0  0  0  0  0
   11.5447  -14.7627    4.1831 C   0  0  0  0  0  0
   11.8306  -13.9383    1.8727 N   0  0  0  0  0  0
   10.8061  -16.6948    2.1276 O   0  0  0  0  0  0
    7.6856  -14.0099    2.2528 O   0  0  0  0  0  0
    4.3331  -12.4522    2.2214 O   0  0  0  0  0  0
    4.6424   -6.0040    0.6347 O   0  0  0  0  0  0
    5.3209   -6.0607   -0.5408 C   0  0  0  0  0  0
    6.5278   -5.9988   -0.6785 O   0  0  0  0  0  0
    4.3353   -6.3163   -1.6474 C   0  0  0  0  0  0
    3.9426   -5.0329   -2.3964 C   0  0  0  0  0  0
    3.2468   -5.3208   -3.7329 C   0  0  0  0  0  0
    4.2256   -5.8535   -4.7534 C   0  0  0  0  0  0
    5.1676   -6.5863   -4.4717 O   0  0  0  0  0  0
    3.9654   -5.4489   -6.0054 O   0  0  0  0  0  0
    2.9911   -4.2733   -1.4617 C   0  0  0  0  0  0
    1.8536   -3.9601   -1.7789 O   0  0  0  0  0  0
    3.5279   -3.9361   -0.2810 O   0  0  0  0  0  0
    1.8588   -6.9461   -0.8859 O   0  0  0  0  0  0
    1.1968   -8.1557   -1.0144 C   0  0  0  0  0  0
    0.9406   -8.9114   -0.0861 O   0  0  0  0  0  0
    0.8088   -8.4575   -2.4679 C   0  0  0  0  0  0
   -0.5040   -9.2781   -2.6622 C   0  0  0  0  0  0
   -1.4303   -8.8948   -3.8307 C   0  0  0  0  0  0
   -1.7876   -7.4364   -3.8419 C   0  0  0  0  0  0
   -1.2233   -6.5586   -3.2035 O   0  0  0  0  0  0
   -2.8130   -7.1656   -4.6638 O   0  0  0  0  0  0
   -0.3031  -10.7974   -2.7231 C   0  0  0  0  0  0
    0.6440  -11.3164   -3.2801 O   0  0  0  0  0  0
   -1.1949  -11.5283   -2.0218 O   0  0  0  0  0  0
   11.7970  -14.5391    1.0502 H   0  0  0  0  0  0
   12.7728  -14.0614    2.2504 H   0  0  0  0  0  0
   10.2237  -17.3922    1.7591 H   0  0  0  0  0  0
    8.3370  -13.4823    2.7506 H   0  0  0  0  0  0
    5.1137  -12.2895    1.6658 H   0  0  0  0  0  0
    3.1824   -4.8737   -6.1031 H   0  0  0  0  0  0
    2.9259   -3.4203    0.3108 H   0  0  0  0  0  0
   -3.3590   -7.9787   -4.7098 H   0  0  0  0  0  0
   -2.0535  -11.6884   -2.4729 H   0  0  0  0  0  0
  1  2  1  0  0  0
  2  3  1  0  0  0
  3  4  1  0  0  0
  4  5  1  0  0  0
  5  6  1  0  0  0
  5  7  1  0  0  0
  7  8  1  0  0  0
  7 39  1  0  0  0
  8  9  1  0  0  0
  8 27  1  0  0  0
  9 10  1  0  0  0
 10 11  1  0  0  0
 10 12  1  0  0  0
 12 13  1  0  0  0
 13 14  1  0  0  0
 13 26  1  0  0  0
 14 15  1  0  0  0
 15 16  1  0  0  0
 16 17  1  0  0  0
 17 18  1  0  0  0
 18 19  1  0  0  0
 18 25  1  0  0  0
 19 20  1  0  0  0
 20 21  1  0  0  0
 20 24  1  0  0  0
 21 22  1  0  0  0
 21 23  1  0  0  0
 23 51  1  0  0  0
 23 52  1  0  0  0
 24 53  1  0  0  0
 25 54  1  0  0  0
 26 55  1  0  0  0
 27 28  1  0  0  0
 28 29  2  0  0  0
 28 30  1  0  0  0
 30 31  1  0  0  0
 31 32  1  0  0  0
 31 36  1  0  0  0
 32 33  1  0  0  0
 33 34  2  0  0  0
 33 35  1  0  0  0
 35 56  1  0  0  0
 36 37  2  0  0  0
 36 38  1  0  0  0
 38 57  1  0  0  0
 39 40  1  0  0  0
 40 41  2  0  0  0
 40 42  1  0  0  0
 42 43  1  0  0  0
 43 44  1  0  0  0
 43 48  1  0  0  0
 44 45  1  0  0  0
 45 46  2  0  0  0
 45 47  1  0  0  0
 47 58  1  0  0  0
 48 49  2  0  0  0
 48 50  1  0  0  0
 50 59  1  0  0  0
M  END
>  <AUTHOR>
    GENERATED BY OPEN BABEL 2.4.1

>  <CHROM.1>
-179.03822669,35.39573508,102.87159071,28.80178210,106.64844974,-45.33815091
-101.08728245,-97.07167639,-15.32197359,172.60103119,-134.96085646,123.52609330
-54.79045570,30.46223134,-165.23316892,120.81467892,-177.08770859,118.89664249
167.61950058,79.84941300,61.49049110,51.09055661,-9.20760761,-127.84575871
99.04612411,164.83708867,-71.78644883,-122.12937893,35.06187984,-0.45904103
178.05818636,-2.15248784,-148.18692476,141.01504089,-52.62862907,-38.20695020
14.83267811,27.88446635,81.68532264,3.55368765,-9.47654375,-0.08626876,2.24699063
-0.16005718,-0.39927424

>  <COMPND>
    UNNAMED

>  <MASTER>
        0    0    0    0    0    0    0    0  109    0  109    0

>  <Name>
FB1.pdb

>  <RI>
0

>  <Rbt.Current_Directory>
/home/fc/tossine/FB1_39/p3/1_clust05

>  <Rbt.Executable>
rbdock/0.1.0

>  <Rbt.Library>
librxdock.so/0.1.0

>  <Rbt.Parameter_File>
/cluster/rxdock/data/scripts/dock.prm

>  <Rbt.Receptor>
rx_2.prm

>  <SCORE>
71.5519

>  <SCORE.INTER>
12.3678

>  <SCORE.INTER.CONST>
1

>  <SCORE.INTER.POLAR>
-1.55921

>  <SCORE.INTER.REPUL>
0.317372

>  <SCORE.INTER.ROT>
32

>  <SCORE.INTER.VDW>
-21.3178

>  <SCORE.INTER.norm>
0.247355

>  <SCORE.INTRA>
56.7235

>  <SCORE.INTRA.DIHEDRAL>
73.7557

>  <SCORE.INTRA.DIHEDRAL.0>
47.3121

>  <SCORE.INTRA.POLAR>
1.47808

>  <SCORE.INTRA.POLAR.0>
-1.47808

>  <SCORE.INTRA.REPUL>
0.0349631

>  <SCORE.INTRA.REPUL.0>
0

>  <SCORE.INTRA.VDW>
14.6454

>  <SCORE.INTRA.VDW.0>
-2.78316

>  <SCORE.INTRA.norm>
1.13447

>  <SCORE.RESTR>
2.46069

>  <SCORE.RESTR.CAVITY>
2.46069

>  <SCORE.RESTR.norm>
0.0492139

>  <SCORE.SYSTEM>
0

>  <SCORE.SYSTEM.CONST>
0

>  <SCORE.SYSTEM.DIHEDRAL>
0

>  <SCORE.SYSTEM.norm>
0

>  <SCORE.heavy>
50

>  <SCORE.norm>
1.43104

$$$$
