FB1.pdb
  RxDock  10072008483D
librxdock.so/0.1.0
 59 58  0  0  0  0  0  0  0  0999 V2000
    2.3477  -12.2779    6.8348 C   0  0  0  0  0  0
    1.7061  -10.8974    6.7166 C   0  0  0  0  0  0
    1.0821  -10.6765    5.3288 C   0  0  0  0  0  0
    2.1205  -10.6667    4.1793 C   0  0  0  0  0  0
    1.5820  -10.1334    2.8059 C   0  0  0  0  0  0
    1.1543   -8.6592    2.9916 C   0  0  0  0  0  0
    2.6247  -10.2765    1.6184 C   0  0  0  0  0  0
    2.1448  -11.0917    0.3256 C   0  0  0  0  0  0
    2.2510  -10.5741   -1.1741 C   0  0  0  0  0  0
    1.6976   -9.0406   -1.4256 C   0  0  0  0  0  0
    1.7814   -8.7336   -2.9199 C   0  0  0  0  0  0
    0.2250   -8.7289   -0.8973 C   0  0  0  0  0  0
   -1.1277   -9.2143   -1.6410 C   0  0  0  0  0  0
   -1.3644   -9.0037   -3.1758 C   0  0  0  0  0  0
   -1.1555   -7.5409   -3.7807 C   0  0  0  0  0  0
   -2.1494   -6.8479   -4.7938 C   0  0  0  0  0  0
   -2.3400   -7.4504   -6.2109 C   0  0  0  0  0  0
   -1.4719   -8.7207   -6.5601 C   0  0  0  0  0  0
   -1.4921   -9.1757   -8.0247 C   0  0  0  0  0  0
   -1.2779   -8.1054   -9.1323 C   0  0  0  0  0  0
   -0.6619   -8.5013  -10.5068 C   0  0  0  0  0  0
   -0.6731   -7.4298  -11.5881 C   0  0  0  0  0  0
    0.6917   -9.0620  -10.3341 N   0  0  0  0  0  0
   -2.6110   -7.6255   -9.4426 O   0  0  0  0  0  0
   -0.1170   -8.4456   -6.1880 O   0  0  0  0  0  0
   -1.1653  -10.6383   -1.4475 O   0  0  0  0  0  0
    2.8930  -12.3377    0.3300 O   0  0  0  0  0  0
    2.4554  -13.3230   -0.4964 C   0  0  0  0  0  0
    1.6783  -13.1925   -1.4230 O   0  0  0  0  0  0
    3.1723  -14.5961   -0.1405 C   0  0  0  0  0  0
    2.7700  -15.1334    1.2422 C   0  0  0  0  0  0
    2.7184  -16.6660    1.2860 C   0  0  0  0  0  0
    1.8528  -17.2143    0.1753 C   0  0  0  0  0  0
    0.6284  -17.1474    0.1737 O   0  0  0  0  0  0
    2.5535  -17.7835   -0.8167 O   0  0  0  0  0  0
    3.8323  -14.6154    2.2215 C   0  0  0  0  0  0
    4.8010  -15.2756    2.5653 O   0  0  0  0  0  0
    3.5846  -13.3923    2.7100 O   0  0  0  0  0  0
    3.2105   -8.9621    1.2589 O   0  0  0  0  0  0
    4.4163   -8.5983    1.8348 C   0  0  0  0  0  0
    5.0432   -9.2853    2.6308 O   0  0  0  0  0  0
    4.8960   -7.2193    1.3633 C   0  0  0  0  0  0
    4.3718   -6.7607   -0.0329 C   0  0  0  0  0  0
    3.0112   -6.0428   -0.0946 C   0  0  0  0  0  0
    3.0414   -4.6745    0.5231 C   0  0  0  0  0  0
    3.9001   -4.2553    1.2869 O   0  0  0  0  0  0
    2.0088   -3.9121    0.1323 O   0  0  0  0  0  0
    5.3656   -5.9180   -0.8419 C   0  0  0  0  0  0
    6.5701   -6.0528   -0.7544 O   0  0  0  0  0  0
    4.8144   -5.0811   -1.7458 O   0  0  0  0  0  0
    0.8958   -9.6879  -11.1120 H   0  0  0  0  0  0
    0.6936   -9.6617   -9.5060 H   0  0  0  0  0  0
   -2.8622   -7.0776   -8.6693 H   0  0  0  0  0  0
    0.4358   -9.1952   -6.4761 H   0  0  0  0  0  0
   -1.8888  -10.9963   -1.9886 H   0  0  0  0  0  0
    2.0187  -18.1567   -1.5435 H   0  0  0  0  0  0
    4.3130  -13.0169    3.2643 H   0  0  0  0  0  0
    1.8004   -3.3152    0.8816 H   0  0  0  0  0  0
    5.4542   -4.5826   -2.3010 H   0  0  0  0  0  0
  1  2  1  0  0  0
  2  3  1  0  0  0
  3  4  1  0  0  0
  4  5  1  0  0  0
  5  6  1  0  0  0
  5  7  1  0  0  0
  7  8  1  0  0  0
  7 39  1  0  0  0
  8  9  1  0  0  0
  8 27  1  0  0  0
  9 10  1  0  0  0
 10 11  1  0  0  0
 10 12  1  0  0  0
 12 13  1  0  0  0
 13 14  1  0  0  0
 13 26  1  0  0  0
 14 15  1  0  0  0
 15 16  1  0  0  0
 16 17  1  0  0  0
 17 18  1  0  0  0
 18 19  1  0  0  0
 18 25  1  0  0  0
 19 20  1  0  0  0
 20 21  1  0  0  0
 20 24  1  0  0  0
 21 22  1  0  0  0
 21 23  1  0  0  0
 23 51  1  0  0  0
 23 52  1  0  0  0
 24 53  1  0  0  0
 25 54  1  0  0  0
 26 55  1  0  0  0
 27 28  1  0  0  0
 28 29  2  0  0  0
 28 30  1  0  0  0
 30 31  1  0  0  0
 31 32  1  0  0  0
 31 36  1  0  0  0
 32 33  1  0  0  0
 33 34  2  0  0  0
 33 35  1  0  0  0
 35 56  1  0  0  0
 36 37  2  0  0  0
 36 38  1  0  0  0
 38 57  1  0  0  0
 39 40  1  0  0  0
 40 41  2  0  0  0
 40 42  1  0  0  0
 42 43  1  0  0  0
 43 44  1  0  0  0
 43 48  1  0  0  0
 44 45  1  0  0  0
 45 46  2  0  0  0
 45 47  1  0  0  0
 47 58  1  0  0  0
 48 49  2  0  0  0
 48 50  1  0  0  0
 50 59  1  0  0  0
M  END
>  <AUTHOR>
    GENERATED BY OPEN BABEL 2.4.1

>  <CHROM.1>
-64.53874026,-167.01315833,62.23693004,123.87114099,129.09063426,94.57281794
-48.21131267,165.90176254,-176.22162987,-76.33804948,-48.90872916,-51.32867540
-171.64148701,-135.08224637,-65.07465126,-1.79633951,-170.46626924,47.75624618
-174.92864302,152.40087408,171.70101921,72.83944283,153.82817297,15.63847563
67.79190887,143.92766327,-52.61962104,-96.02197144,-73.51503686,179.27220358
-173.77631345,-0.18672352,-25.38904664,86.48052492,69.04674857,30.77661757
-17.43815058,148.56516180,-176.42253902,1.74964073,-9.93218711,-1.13468819
-0.69838822,-1.15502707,-0.32117103

>  <COMPND>
    UNNAMED

>  <MASTER>
        0    0    0    0    0    0    0    0  109    0  109    0

>  <Name>
FB1.pdb

>  <RI>
0

>  <Rbt.Current_Directory>
/home/fc/tossine/FB1_39/p3/1_clust05

>  <Rbt.Executable>
rbdock/0.1.0

>  <Rbt.Library>
librxdock.so/0.1.0

>  <Rbt.Parameter_File>
/cluster/rxdock/data/scripts/dock.prm

>  <Rbt.Receptor>
rx_2.prm

>  <SCORE>
32.2014

>  <SCORE.INTER>
7.57374

>  <SCORE.INTER.CONST>
1

>  <SCORE.INTER.POLAR>
-4.76675

>  <SCORE.INTER.REPUL>
0.844449

>  <SCORE.INTER.ROT>
32

>  <SCORE.INTER.VDW>
-17.8416

>  <SCORE.INTER.norm>
0.151475

>  <SCORE.INTRA>
16.0257

>  <SCORE.INTRA.DIHEDRAL>
16.2186

>  <SCORE.INTRA.DIHEDRAL.0>
47.3121

>  <SCORE.INTRA.POLAR>
1.47808

>  <SCORE.INTRA.POLAR.0>
-1.47808

>  <SCORE.INTRA.REPUL>
0.0709751

>  <SCORE.INTRA.REPUL.0>
0

>  <SCORE.INTRA.VDW>
2.53605

>  <SCORE.INTRA.VDW.0>
-2.78316

>  <SCORE.INTRA.norm>
0.320514

>  <SCORE.RESTR>
8.60193

>  <SCORE.RESTR.CAVITY>
8.60193

>  <SCORE.RESTR.norm>
0.172039

>  <SCORE.SYSTEM>
0

>  <SCORE.SYSTEM.CONST>
0

>  <SCORE.SYSTEM.DIHEDRAL>
0

>  <SCORE.SYSTEM.norm>
0

>  <SCORE.heavy>
50

>  <SCORE.norm>
0.644027

$$$$
