FB1.pdb
  RxDock  10072007263D
librxdock.so/0.1.0
 59 58  0  0  0  0  0  0  0  0999 V2000
   -0.5338   -4.0958    3.1214 C   0  0  0  0  0  0
    0.4479   -2.9434    2.9226 C   0  0  0  0  0  0
    1.0361   -2.9351    1.5019 C   0  0  0  0  0  0
    2.1727   -3.9678    1.2982 C   0  0  0  0  0  0
    1.7117   -5.4671    1.2950 C   0  0  0  0  0  0
    0.8023   -5.6928    0.0651 C   0  0  0  0  0  0
    2.9162   -6.5000    1.3074 C   0  0  0  0  0  0
    2.5983   -7.9791    1.8340 C   0  0  0  0  0  0
    2.4328   -8.3910    3.3608 C   0  0  0  0  0  0
    1.6271   -7.2975    4.2969 C   0  0  0  0  0  0
    0.1901   -7.1901    3.7894 C   0  0  0  0  0  0
    1.6201   -7.5852    5.8660 C   0  0  0  0  0  0
    0.8885   -6.6419    6.9584 C   0  0  0  0  0  0
    0.8556   -6.9943    8.4851 C   0  0  0  0  0  0
    2.1798   -6.7589    9.3454 C   0  0  0  0  0  0
    2.5101   -7.5137   10.6929 C   0  0  0  0  0  0
    1.3691   -8.2165   11.4750 C   0  0  0  0  0  0
    1.0325   -9.6987   11.0517 C   0  0  0  0  0  0
    0.9357   -9.9696    9.5452 C   0  0  0  0  0  0
    2.1617  -10.6047    8.8299 C   0  0  0  0  0  0
    2.1773  -12.1232    8.4843 C   0  0  0  0  0  0
    3.3665  -12.6217    7.6752 C   0  0  0  0  0  0
    1.9852  -12.9403    9.6975 N   0  0  0  0  0  0
    2.2316   -9.9275    7.5492 O   0  0  0  0  0  0
    2.0383  -10.5549   11.6041 O   0  0  0  0  0  0
    1.5765   -5.3822    6.8788 O   0  0  0  0  0  0
    1.3407   -8.3682    1.2180 O   0  0  0  0  0  0
    1.3771   -9.4087    0.3454 C   0  0  0  0  0  0
    0.8072   -9.4682   -0.7274 O   0  0  0  0  0  0
    2.3270  -10.4449    0.8797 C   0  0  0  0  0  0
    1.9214  -11.8750    0.4888 C   0  0  0  0  0  0
    3.0989  -12.8567    0.5440 C   0  0  0  0  0  0
    3.7796  -12.8164    1.8925 C   0  0  0  0  0  0
    3.4898  -13.5630    2.8211 O   0  0  0  0  0  0
    4.7383  -11.8825    1.9794 O   0  0  0  0  0  0
    0.8392  -12.2959    1.4927 C   0  0  0  0  0  0
    0.8164  -13.3940    2.0275 O   0  0  0  0  0  0
   -0.1118  -11.3746    1.6994 O   0  0  0  0  0  0
    3.6215   -6.5156    0.0028 O   0  0  0  0  0  0
    3.5772   -7.6730   -0.7566 C   0  0  0  0  0  0
    3.9784   -8.7672   -0.3822 O   0  0  0  0  0  0
    2.9609   -7.4390   -2.1421 C   0  0  0  0  0  0
    3.3124   -6.0777   -2.8187 C   0  0  0  0  0  0
    4.7704   -5.5886   -2.7452 C   0  0  0  0  0  0
    5.3361   -5.2267   -4.0881 C   0  0  0  0  0  0
    5.4666   -4.0915   -4.5250 O   0  0  0  0  0  0
    5.7200   -6.3037   -4.7904 O   0  0  0  0  0  0
    2.8682   -5.9594   -4.2819 C   0  0  0  0  0  0
    2.5305   -6.9174   -4.9489 O   0  0  0  0  0  0
    2.7720   -4.7004   -4.7582 O   0  0  0  0  0  0
    1.1154  -12.6647   10.1516 H   0  0  0  0  0  0
    2.7191  -12.7050   10.3694 H   0  0  0  0  0  0
    2.5590   -9.0283    7.7632 H   0  0  0  0  0  0
    1.7212  -11.4749   11.5438 H   0  0  0  0  0  0
    1.4164   -5.0073    5.9966 H   0  0  0  0  0  0
    4.9661  -11.4399    1.1394 H   0  0  0  0  0  0
   -0.8145  -11.6472    2.3402 H   0  0  0  0  0  0
    6.0681   -5.9727   -5.6452 H   0  0  0  0  0  0
    2.3584   -4.6180   -5.6461 H   0  0  0  0  0  0
  1  2  1  0  0  0
  2  3  1  0  0  0
  3  4  1  0  0  0
  4  5  1  0  0  0
  5  6  1  0  0  0
  5  7  1  0  0  0
  7  8  1  0  0  0
  7 39  1  0  0  0
  8  9  1  0  0  0
  8 27  1  0  0  0
  9 10  1  0  0  0
 10 11  1  0  0  0
 10 12  1  0  0  0
 12 13  1  0  0  0
 13 14  1  0  0  0
 13 26  1  0  0  0
 14 15  1  0  0  0
 15 16  1  0  0  0
 16 17  1  0  0  0
 17 18  1  0  0  0
 18 19  1  0  0  0
 18 25  1  0  0  0
 19 20  1  0  0  0
 20 21  1  0  0  0
 20 24  1  0  0  0
 21 22  1  0  0  0
 21 23  1  0  0  0
 23 51  1  0  0  0
 23 52  1  0  0  0
 24 53  1  0  0  0
 25 54  1  0  0  0
 26 55  1  0  0  0
 27 28  1  0  0  0
 28 29  2  0  0  0
 28 30  1  0  0  0
 30 31  1  0  0  0
 31 32  1  0  0  0
 31 36  1  0  0  0
 32 33  1  0  0  0
 33 34  2  0  0  0
 33 35  1  0  0  0
 35 56  1  0  0  0
 36 37  2  0  0  0
 36 38  1  0  0  0
 38 57  1  0  0  0
 39 40  1  0  0  0
 40 41  2  0  0  0
 40 42  1  0  0  0
 42 43  1  0  0  0
 43 44  1  0  0  0
 43 48  1  0  0  0
 44 45  1  0  0  0
 45 46  2  0  0  0
 45 47  1  0  0  0
 47 58  1  0  0  0
 48 49  2  0  0  0
 48 50  1  0  0  0
 50 59  1  0  0  0
M  END
>  <AUTHOR>
    GENERATED BY OPEN BABEL 2.4.1

>  <CHROM.1>
-79.04726382,70.04079560,65.13139027,158.29029565,-77.03531106,-114.76818383
39.35992423,115.17490720,64.18789057,-179.91919353,177.37692948,76.01727839
64.67791169,-156.48022049,-18.45169354,86.69249467,-45.03404638,99.39494659
165.81003484,101.30497210,174.71407707,72.89208765,56.45709614,-136.81008193
148.57778428,158.11573725,53.76841475,-136.04467879,92.64868204,-8.46434444
179.48736986,-58.83089588,37.18063820,43.27393709,127.92743045,-14.77167802
101.64041148,179.72294246,-171.06347716,2.27899612,-8.27635712,2.74197469
0.82686008,1.37667420,-0.54630115

>  <COMPND>
    UNNAMED

>  <MASTER>
        0    0    0    0    0    0    0    0  109    0  109    0

>  <Name>
FB1.pdb

>  <RI>
0

>  <Rbt.Current_Directory>
/home/fc/tossine/FB1_39/p3/1_clust05

>  <Rbt.Executable>
rbdock/0.1.0

>  <Rbt.Library>
librxdock.so/0.1.0

>  <Rbt.Parameter_File>
/cluster/rxdock/data/scripts/dock.prm

>  <Rbt.Receptor>
rx_0.prm

>  <SCORE>
44.4805

>  <SCORE.INTER>
10.3459

>  <SCORE.INTER.CONST>
1

>  <SCORE.INTER.POLAR>
-2.36697

>  <SCORE.INTER.REPUL>
0.0130425

>  <SCORE.INTER.ROT>
32

>  <SCORE.INTER.VDW>
-19.0716

>  <SCORE.INTER.norm>
0.206919

>  <SCORE.INTRA>
30.2315

>  <SCORE.INTRA.DIHEDRAL>
39.0625

>  <SCORE.INTRA.DIHEDRAL.0>
47.3121

>  <SCORE.INTRA.POLAR>
1.47808

>  <SCORE.INTRA.POLAR.0>
-1.47808

>  <SCORE.INTRA.REPUL>
0

>  <SCORE.INTRA.REPUL.0>
0

>  <SCORE.INTRA.VDW>
5.67474

>  <SCORE.INTRA.VDW.0>
-2.78316

>  <SCORE.INTRA.norm>
0.60463

>  <SCORE.RESTR>
3.90313

>  <SCORE.RESTR.CAVITY>
3.90313

>  <SCORE.RESTR.norm>
0.0780625

>  <SCORE.SYSTEM>
0

>  <SCORE.SYSTEM.CONST>
0

>  <SCORE.SYSTEM.DIHEDRAL>
0

>  <SCORE.SYSTEM.norm>
0

>  <SCORE.heavy>
50

>  <SCORE.norm>
0.889611

$$$$
