FB1.pdb
  RxDock  10072008373D
librxdock.so/0.1.0
 59 58  0  0  0  0  0  0  0  0999 V2000
    1.3403   -8.1720    6.0992 C   0  0  0  0  0  0
    0.2497   -8.4334    5.0629 C   0  0  0  0  0  0
    0.6470   -7.9084    3.6734 C   0  0  0  0  0  0
    0.9273   -9.0328    2.6453 C   0  0  0  0  0  0
    2.1179   -9.9850    3.0145 C   0  0  0  0  0  0
    1.6098  -11.0213    4.0433 C   0  0  0  0  0  0
    2.7666  -10.7042    1.7576 C   0  0  0  0  0  0
    1.8730  -11.8029    1.0089 C   0  0  0  0  0  0
    1.3602  -11.6969   -0.4924 C   0  0  0  0  0  0
    1.7665  -10.3019   -1.2735 C   0  0  0  0  0  0
    1.4991  -10.4863   -2.7664 C   0  0  0  0  0  0
    1.0464   -8.9738   -0.7612 C   0  0  0  0  0  0
    0.9361   -7.6101   -1.6253 C   0  0  0  0  0  0
    0.2759   -6.3070   -1.0577 C   0  0  0  0  0  0
    0.1630   -5.0356   -2.0169 C   0  0  0  0  0  0
   -0.4447   -5.0730   -3.4742 C   0  0  0  0  0  0
   -1.6374   -6.0168   -3.7813 C   0  0  0  0  0  0
   -1.2771   -7.4710   -4.2757 C   0  0  0  0  0  0
   -2.0228   -7.9698   -5.5198 C   0  0  0  0  0  0
   -1.4471   -9.1970   -6.2819 C   0  0  0  0  0  0
   -1.8043   -9.4379   -7.7785 C   0  0  0  0  0  0
   -2.7690  -10.5790   -8.0695 C   0  0  0  0  0  0
   -2.2572   -8.1882   -8.4184 N   0  0  0  0  0  0
   -0.0103   -8.9986   -6.2660 O   0  0  0  0  0  0
    0.1291   -7.5115   -4.5417 O   0  0  0  0  0  0
    2.2960   -7.2458   -1.9160 O   0  0  0  0  0  0
    2.6369  -13.0390    1.0418 O   0  0  0  0  0  0
    2.0993  -14.0782    1.7318 C   0  0  0  0  0  0
    1.2400  -14.0045    2.5895 O   0  0  0  0  0  0
    2.6715  -15.3579    1.1874 C   0  0  0  0  0  0
    4.0276  -15.1504    0.4944 C   0  0  0  0  0  0
    5.0358  -14.4106    1.3831 C   0  0  0  0  0  0
    5.1584  -15.0726    2.7359 C   0  0  0  0  0  0
    5.8008  -16.0983    2.9334 O   0  0  0  0  0  0
    4.4959  -14.4285    3.7080 O   0  0  0  0  0  0
    4.5511  -16.5547    0.1627 C   0  0  0  0  0  0
    3.9918  -17.5781    0.5263 O   0  0  0  0  0  0
    5.7045  -16.5681   -0.5196 O   0  0  0  0  0  0
    3.3380   -9.7156    0.8109 O   0  0  0  0  0  0
    4.1011   -8.6788    1.3215 C   0  0  0  0  0  0
    4.3660   -8.5275    2.5070 O   0  0  0  0  0  0
    4.5907   -7.7206    0.2277 C   0  0  0  0  0  0
    3.8560   -6.3461    0.1527 C   0  0  0  0  0  0
    3.4252   -5.6832    1.4738 C   0  0  0  0  0  0
    2.0535   -5.0763    1.4055 C   0  0  0  0  0  0
    1.0571   -5.4988    1.9758 O   0  0  0  0  0  0
    2.0187   -3.9708    0.6458 O   0  0  0  0  0  0
    4.5836   -5.2784   -0.6736 C   0  0  0  0  0  0
    4.0403   -4.6412   -1.5542 O   0  0  0  0  0  0
    5.8492   -5.0108   -0.2888 O   0  0  0  0  0  0
   -1.7137   -7.4086   -8.0506 H   0  0  0  0  0  0
   -3.2186   -8.0009   -8.1251 H   0  0  0  0  0  0
    0.2954   -9.4731   -5.4643 H   0  0  0  0  0  0
    0.5137   -8.2493   -4.0336 H   0  0  0  0  0  0
    2.6818   -7.9432   -2.4721 H   0  0  0  0  0  0
    4.4976  -14.8721    4.5779 H   0  0  0  0  0  0
    5.7875  -17.3089   -1.1701 H   0  0  0  0  0  0
    1.0853   -3.6713    0.6276 H   0  0  0  0  0  0
    6.1688   -5.5221    0.4875 H   0  0  0  0  0  0
  1  2  1  0  0  0
  2  3  1  0  0  0
  3  4  1  0  0  0
  4  5  1  0  0  0
  5  6  1  0  0  0
  5  7  1  0  0  0
  7  8  1  0  0  0
  7 39  1  0  0  0
  8  9  1  0  0  0
  8 27  1  0  0  0
  9 10  1  0  0  0
 10 11  1  0  0  0
 10 12  1  0  0  0
 12 13  1  0  0  0
 13 14  1  0  0  0
 13 26  1  0  0  0
 14 15  1  0  0  0
 15 16  1  0  0  0
 16 17  1  0  0  0
 17 18  1  0  0  0
 18 19  1  0  0  0
 18 25  1  0  0  0
 19 20  1  0  0  0
 20 21  1  0  0  0
 20 24  1  0  0  0
 21 22  1  0  0  0
 21 23  1  0  0  0
 23 51  1  0  0  0
 23 52  1  0  0  0
 24 53  1  0  0  0
 25 54  1  0  0  0
 26 55  1  0  0  0
 27 28  1  0  0  0
 28 29  2  0  0  0
 28 30  1  0  0  0
 30 31  1  0  0  0
 31 32  1  0  0  0
 31 36  1  0  0  0
 32 33  1  0  0  0
 33 34  2  0  0  0
 33 35  1  0  0  0
 35 56  1  0  0  0
 36 37  2  0  0  0
 36 38  1  0  0  0
 38 57  1  0  0  0
 39 40  1  0  0  0
 40 41  2  0  0  0
 40 42  1  0  0  0
 42 43  1  0  0  0
 43 44  1  0  0  0
 43 48  1  0  0  0
 44 45  1  0  0  0
 45 46  2  0  0  0
 45 47  1  0  0  0
 47 58  1  0  0  0
 48 49  2  0  0  0
 48 50  1  0  0  0
 50 59  1  0  0  0
M  END
>  <AUTHOR>
    GENERATED BY OPEN BABEL 2.4.1

>  <CHROM.1>
110.46090446,-61.88026595,80.16993064,-68.63641758,116.48319716,45.20451953
-2.19422363,116.45900014,166.88637105,-160.72893628,-177.16504612,-177.42676959
63.79311700,50.93660816,35.11483392,-90.20329124,-131.74779006,163.15817165
125.75715908,-157.44828042,-106.91590169,92.00745064,37.07579300,-19.90692081
23.51620775,52.63613440,52.05617574,-5.88397096,77.71768753,175.27568189
-145.68246962,1.52543535,105.10787563,36.88658251,-138.10330504,129.09114172
109.64341304,177.51927728,-0.62222913,1.97720916,-9.66944644,-0.35817702
-0.50357729,-1.11163358,0.30435164

>  <COMPND>
    UNNAMED

>  <MASTER>
        0    0    0    0    0    0    0    0  109    0  109    0

>  <Name>
FB1.pdb

>  <RI>
0

>  <Rbt.Current_Directory>
/home/fc/tossine/FB1_39/p3/1_clust05

>  <Rbt.Executable>
rbdock/0.1.0

>  <Rbt.Library>
librxdock.so/0.1.0

>  <Rbt.Parameter_File>
/cluster/rxdock/data/scripts/dock.prm

>  <Rbt.Receptor>
rx_2.prm

>  <SCORE>
49.092

>  <SCORE.INTER>
21.1746

>  <SCORE.INTER.CONST>
1

>  <SCORE.INTER.POLAR>
-0.996314

>  <SCORE.INTER.REPUL>
1.44096

>  <SCORE.INTER.ROT>
32

>  <SCORE.INTER.VDW>
-20.0428

>  <SCORE.INTER.norm>
0.423491

>  <SCORE.INTRA>
24.2039

>  <SCORE.INTRA.DIHEDRAL>
40.0231

>  <SCORE.INTRA.DIHEDRAL.0>
47.3121

>  <SCORE.INTRA.POLAR>
1.47808

>  <SCORE.INTRA.POLAR.0>
-1.47808

>  <SCORE.INTRA.REPUL>
0

>  <SCORE.INTRA.REPUL.0>
0

>  <SCORE.INTRA.VDW>
-0.833129

>  <SCORE.INTRA.VDW.0>
-2.78316

>  <SCORE.INTRA.norm>
0.484078

>  <SCORE.RESTR>
3.71357

>  <SCORE.RESTR.CAVITY>
3.71357

>  <SCORE.RESTR.norm>
0.0742714

>  <SCORE.SYSTEM>
0

>  <SCORE.SYSTEM.CONST>
0

>  <SCORE.SYSTEM.DIHEDRAL>
0

>  <SCORE.SYSTEM.norm>
0

>  <SCORE.heavy>
50

>  <SCORE.norm>
0.98184

$$$$
