FB1.pdb
  RxDock  10072009203D
librxdock.so/0.1.0
 59 58  0  0  0  0  0  0  0  0999 V2000
    1.4963   -8.9042    6.2129 C   0  0  0  0  0  0
    2.1712   -8.0730    5.1242 C   0  0  0  0  0  0
    1.4989   -8.2735    3.7559 C   0  0  0  0  0  0
    2.3297   -9.1452    2.7815 C   0  0  0  0  0  0
    3.5669   -8.4250    2.1403 C   0  0  0  0  0  0
    4.6216   -8.1940    3.2471 C   0  0  0  0  0  0
    4.1940   -9.2141    0.9148 C   0  0  0  0  0  0
    3.3216  -10.4072    0.2970 C   0  0  0  0  0  0
    2.9804  -11.7710    1.0399 C   0  0  0  0  0  0
    4.2332  -12.4449    1.8752 C   0  0  0  0  0  0
    3.6986  -12.9813    3.2022 C   0  0  0  0  0  0
    5.0437  -13.5937    1.1215 C   0  0  0  0  0  0
    6.6498  -13.7741    1.2025 C   0  0  0  0  0  0
    7.6335  -12.5541    1.1977 C   0  0  0  0  0  0
    9.1348  -12.7899    1.6872 C   0  0  0  0  0  0
   10.4147  -12.4028    0.8466 C   0  0  0  0  0  0
   10.9542  -10.9490    0.9008 C   0  0  0  0  0  0
   12.2009  -10.6247   -0.0101 C   0  0  0  0  0  0
   12.0158   -9.5046   -1.0414 C   0  0  0  0  0  0
   13.1939   -9.1885   -2.0060 C   0  0  0  0  0  0
   13.4595  -10.0852   -3.2513 C   0  0  0  0  0  0
   13.8671  -11.5256   -2.9744 C   0  0  0  0  0  0
   12.3234  -10.0299   -4.1907 N   0  0  0  0  0  0
   12.8854   -7.8781   -2.5459 O   0  0  0  0  0  0
   13.2951  -10.2785    0.8459 O   0  0  0  0  0  0
    6.8841  -14.4402    2.4547 O   0  0  0  0  0  0
    2.0234   -9.8376   -0.0235 O   0  0  0  0  0  0
    1.3681  -10.3590   -1.0931 C   0  0  0  0  0  0
    1.7238  -11.3117   -1.7603 O   0  0  0  0  0  0
    0.0669   -9.6236   -1.2589 C   0  0  0  0  0  0
   -0.5741   -9.8610   -2.6355 C   0  0  0  0  0  0
   -1.6866   -8.8521   -2.9487 C   0  0  0  0  0  0
   -1.6464   -8.4291   -4.3988 C   0  0  0  0  0  0
   -1.2837   -7.3186   -4.7716 O   0  0  0  0  0  0
   -2.0454   -9.3887   -5.2466 O   0  0  0  0  0  0
    0.5617   -9.7249   -3.6589 C   0  0  0  0  0  0
    0.9361  -10.6478   -4.3664 O   0  0  0  0  0  0
    1.1462   -8.5191   -3.6794 O   0  0  0  0  0  0
    4.6771   -8.2811   -0.1321 O   0  0  0  0  0  0
    4.9371   -6.9683    0.2242 C   0  0  0  0  0  0
    5.4319   -6.6205    1.2885 O   0  0  0  0  0  0
    4.5343   -5.9747   -0.8734 C   0  0  0  0  0  0
    3.0307   -5.5582   -0.8916 C   0  0  0  0  0  0
    2.6789   -4.1028   -0.5332 C   0  0  0  0  0  0
    1.2027   -3.8779   -0.3757 C   0  0  0  0  0  0
    0.4020   -3.7307   -1.2888 O   0  0  0  0  0  0
    0.8190   -3.8707    0.9100 O   0  0  0  0  0  0
    2.2912   -5.8959   -2.1921 C   0  0  0  0  0  0
    1.2146   -6.4593   -2.2123 O   0  0  0  0  0  0
    2.8636   -5.4300   -3.3219 O   0  0  0  0  0  0
   11.9102   -9.0988   -4.1608 H   0  0  0  0  0  0
   11.5886  -10.6551   -3.8518 H   0  0  0  0  0  0
   11.9330   -7.9234   -2.7745 H   0  0  0  0  0  0
   13.2591  -10.8527    1.6330 H   0  0  0  0  0  0
    7.0266  -15.3839    2.2712 H   0  0  0  0  0  0
   -1.9676   -9.1662   -6.1942 H   0  0  0  0  0  0
    1.1394   -8.0751   -4.5635 H   0  0  0  0  0  0
    1.5316   -4.3121    1.4187 H   0  0  0  0  0  0
    3.7269   -4.9763   -3.1987 H   0  0  0  0  0  0
  1  2  1  0  0  0
  2  3  1  0  0  0
  3  4  1  0  0  0
  4  5  1  0  0  0
  5  6  1  0  0  0
  5  7  1  0  0  0
  7  8  1  0  0  0
  7 39  1  0  0  0
  8  9  1  0  0  0
  8 27  1  0  0  0
  9 10  1  0  0  0
 10 11  1  0  0  0
 10 12  1  0  0  0
 12 13  1  0  0  0
 13 14  1  0  0  0
 13 26  1  0  0  0
 14 15  1  0  0  0
 15 16  1  0  0  0
 16 17  1  0  0  0
 17 18  1  0  0  0
 18 19  1  0  0  0
 18 25  1  0  0  0
 19 20  1  0  0  0
 20 21  1  0  0  0
 20 24  1  0  0  0
 21 22  1  0  0  0
 21 23  1  0  0  0
 23 51  1  0  0  0
 23 52  1  0  0  0
 24 53  1  0  0  0
 25 54  1  0  0  0
 26 55  1  0  0  0
 27 28  1  0  0  0
 28 29  2  0  0  0
 28 30  1  0  0  0
 30 31  1  0  0  0
 31 32  1  0  0  0
 31 36  1  0  0  0
 32 33  1  0  0  0
 33 34  2  0  0  0
 33 35  1  0  0  0
 35 56  1  0  0  0
 36 37  2  0  0  0
 36 38  1  0  0  0
 38 57  1  0  0  0
 39 40  1  0  0  0
 40 41  2  0  0  0
 40 42  1  0  0  0
 42 43  1  0  0  0
 43 44  1  0  0  0
 43 48  1  0  0  0
 44 45  1  0  0  0
 45 46  2  0  0  0
 45 47  1  0  0  0
 47 58  1  0  0  0
 48 49  2  0  0  0
 48 50  1  0  0  0
 50 59  1  0  0  0
M  END
>  <AUTHOR>
    GENERATED BY OPEN BABEL 2.4.1

>  <CHROM.1>
-105.77371240,-75.43836274,69.53409973,13.55988796,-67.43219423,20.60807851
-42.20745871,147.98233769,138.92317158,140.98446266,-39.28835019,163.02982251
100.32499862,126.62348675,83.77421380,-177.63041703,121.64702924,-177.34996946
37.95158392,79.02522666,-64.78960562,-44.78998061,33.58373803,4.84321345
164.53398934,-165.16299377,140.72795261,116.34991735,-108.27426697,-175.69134395
-123.66443106,37.47974614,83.37720987,112.29342352,-171.00610657,131.33377965
-79.34692446,-18.93242146,4.03612202,4.58823534,-9.14534339,-0.43990192,2.91144257
0.19019820,-0.99760567

>  <COMPND>
    UNNAMED

>  <MASTER>
        0    0    0    0    0    0    0    0  109    0  109    0

>  <Name>
FB1.pdb

>  <RI>
0

>  <Rbt.Current_Directory>
/home/fc/tossine/FB1_39/p3/1_clust05

>  <Rbt.Executable>
rbdock/0.1.0

>  <Rbt.Library>
librxdock.so/0.1.0

>  <Rbt.Parameter_File>
/cluster/rxdock/data/scripts/dock.prm

>  <Rbt.Receptor>
rx_3.prm

>  <SCORE>
85.6645

>  <SCORE.INTER>
45.6914

>  <SCORE.INTER.CONST>
1

>  <SCORE.INTER.POLAR>
-1.98285

>  <SCORE.INTER.REPUL>
1.0139

>  <SCORE.INTER.ROT>
32

>  <SCORE.INTER.VDW>
9.96361

>  <SCORE.INTER.norm>
0.913828

>  <SCORE.INTRA>
39.0056

>  <SCORE.INTRA.DIHEDRAL>
58.0802

>  <SCORE.INTRA.DIHEDRAL.0>
47.3121

>  <SCORE.INTRA.POLAR>
1.47808

>  <SCORE.INTRA.POLAR.0>
-1.47808

>  <SCORE.INTRA.REPUL>
0

>  <SCORE.INTRA.REPUL.0>
0

>  <SCORE.INTRA.VDW>
4.94006

>  <SCORE.INTRA.VDW.0>
-2.78316

>  <SCORE.INTRA.norm>
0.780113

>  <SCORE.RESTR>
0.967421

>  <SCORE.RESTR.CAVITY>
0.967421

>  <SCORE.RESTR.norm>
0.0193484

>  <SCORE.SYSTEM>
0

>  <SCORE.SYSTEM.CONST>
0

>  <SCORE.SYSTEM.DIHEDRAL>
0

>  <SCORE.SYSTEM.norm>
0

>  <SCORE.heavy>
50

>  <SCORE.norm>
1.71329

$$$$
