FB1.pdb
  RxDock  10072009253D
librxdock.so/0.1.0
 59 58  0  0  0  0  0  0  0  0999 V2000
   -1.3981   -8.8956   -3.7558 C   0  0  0  0  0  0
   -0.1362   -9.7269   -3.5372 C   0  0  0  0  0  0
    0.4167   -9.5587   -2.1123 C   0  0  0  0  0  0
   -0.1522  -10.5877   -1.1037 C   0  0  0  0  0  0
    0.5690  -10.6174    0.2889 C   0  0  0  0  0  0
   -0.3952  -11.2451    1.3217 C   0  0  0  0  0  0
    1.9566  -11.3870    0.2671 C   0  0  0  0  0  0
    3.2053  -10.6511    0.9491 C   0  0  0  0  0  0
    4.5532  -11.3641    1.3997 C   0  0  0  0  0  0
    5.8626  -10.3687    1.5261 C   0  0  0  0  0  0
    5.4947   -9.1960    2.4336 C   0  0  0  0  0  0
    7.2116  -11.0438    2.0451 C   0  0  0  0  0  0
    8.2560  -11.8329    1.0937 C   0  0  0  0  0  0
    9.7087  -12.1934    1.5583 C   0  0  0  0  0  0
   10.9227  -11.8587    0.5769 C   0  0  0  0  0  0
   11.3905  -10.3957    0.2088 C   0  0  0  0  0  0
   12.7815   -9.8962    0.6811 C   0  0  0  0  0  0
   14.0392  -10.5956    0.0345 C   0  0  0  0  0  0
   14.1717  -10.4811   -1.4893 C   0  0  0  0  0  0
   13.5745  -11.6161   -2.3687 C   0  0  0  0  0  0
   13.1902  -11.3475   -3.8538 C   0  0  0  0  0  0
   11.7037  -11.2223   -4.1570 C   0  0  0  0  0  0
   13.9366  -10.1932   -4.3893 N   0  0  0  0  0  0
   14.6168  -12.6231   -2.4268 O   0  0  0  0  0  0
   15.2126  -10.0381    0.6361 O   0  0  0  0  0  0
    7.6254  -13.0955    0.8201 O   0  0  0  0  0  0
    3.6358   -9.6277    0.0112 O   0  0  0  0  0  0
    2.9051   -8.4833   -0.0314 C   0  0  0  0  0  0
    2.1094   -8.1061    0.8077 O   0  0  0  0  0  0
    3.3175   -7.7002   -1.2472 C   0  0  0  0  0  0
    3.0911   -6.1891   -1.0809 C   0  0  0  0  0  0
    3.3737   -5.7052    0.3472 C   0  0  0  0  0  0
    4.8592   -5.6319    0.6139 C   0  0  0  0  0  0
    5.5509   -6.6107    0.8733 O   0  0  0  0  0  0
    5.3549   -4.3879    0.5384 O   0  0  0  0  0  0
    4.0509   -5.5077   -2.0660 C   0  0  0  0  0  0
    5.2602   -5.4653   -1.8975 O   0  0  0  0  0  0
    3.4479   -4.9170   -3.1067 O   0  0  0  0  0  0
    1.8033  -12.7810    0.7500 O   0  0  0  0  0  0
    2.1884  -13.8146   -0.0875 C   0  0  0  0  0  0
    1.8439  -13.9287   -1.2566 O   0  0  0  0  0  0
    3.1096  -14.8217    0.6135 C   0  0  0  0  0  0
    2.7551  -16.3262    0.4007 C   0  0  0  0  0  0
    3.7990  -17.3805    0.8118 C   0  0  0  0  0  0
    5.1618  -17.1096    0.2427 C   0  0  0  0  0  0
    5.4370  -16.2305   -0.5623 O   0  0  0  0  0  0
    6.0958  -17.9407    0.7296 O   0  0  0  0  0  0
    1.4135  -16.7570    1.0065 C   0  0  0  0  0  0
    1.0923  -16.4997    2.1499 O   0  0  0  0  0  0
    0.5567  -17.3538    0.1515 O   0  0  0  0  0  0
   13.7099   -9.3650   -3.8404 H   0  0  0  0  0  0
   13.5913   -9.9886   -5.3297 H   0  0  0  0  0  0
   14.9939  -12.6403   -1.5219 H   0  0  0  0  0  0
   15.3341  -10.4548    1.5091 H   0  0  0  0  0  0
    7.6722  -13.6360    1.6264 H   0  0  0  0  0  0
    4.7092   -3.6961    0.2978 H   0  0  0  0  0  0
    4.0598   -4.4309   -3.7134 H   0  0  0  0  0  0
    6.9511  -17.6624    0.3394 H   0  0  0  0  0  0
    0.8941  -17.4761   -0.7636 H   0  0  0  0  0  0
  1  2  1  0  0  0
  2  3  1  0  0  0
  3  4  1  0  0  0
  4  5  1  0  0  0
  5  6  1  0  0  0
  5  7  1  0  0  0
  7  8  1  0  0  0
  7 39  1  0  0  0
  8  9  1  0  0  0
  8 27  1  0  0  0
  9 10  1  0  0  0
 10 11  1  0  0  0
 10 12  1  0  0  0
 12 13  1  0  0  0
 13 14  1  0  0  0
 13 26  1  0  0  0
 14 15  1  0  0  0
 15 16  1  0  0  0
 16 17  1  0  0  0
 17 18  1  0  0  0
 18 19  1  0  0  0
 18 25  1  0  0  0
 19 20  1  0  0  0
 20 21  1  0  0  0
 20 24  1  0  0  0
 21 22  1  0  0  0
 21 23  1  0  0  0
 23 51  1  0  0  0
 23 52  1  0  0  0
 24 53  1  0  0  0
 25 54  1  0  0  0
 26 55  1  0  0  0
 27 28  1  0  0  0
 28 29  2  0  0  0
 28 30  1  0  0  0
 30 31  1  0  0  0
 31 32  1  0  0  0
 31 36  1  0  0  0
 32 33  1  0  0  0
 33 34  2  0  0  0
 33 35  1  0  0  0
 35 56  1  0  0  0
 36 37  2  0  0  0
 36 38  1  0  0  0
 38 57  1  0  0  0
 39 40  1  0  0  0
 40 41  2  0  0  0
 40 42  1  0  0  0
 42 43  1  0  0  0
 43 44  1  0  0  0
 43 48  1  0  0  0
 44 45  1  0  0  0
 45 46  2  0  0  0
 45 47  1  0  0  0
 47 58  1  0  0  0
 48 49  2  0  0  0
 48 50  1  0  0  0
 50 59  1  0  0  0
M  END
>  <AUTHOR>
    GENERATED BY OPEN BABEL 2.4.1

>  <CHROM.1>
90.24822771,169.59065809,158.54428722,131.99762092,162.19063306,122.57351822
157.56032766,78.35808767,53.17937875,84.26911461,165.60240218,-131.83333790
-73.23201520,67.84061822,113.32374694,67.37841008,60.15927242,-92.84551937
78.86973707,156.99547960,-105.13875494,39.67782777,-60.45104248,16.39173272
-153.31062784,36.52207673,75.44393613,-72.16178633,-78.82900075,-1.71458491
176.49450865,-50.00087572,133.52897414,166.91507131,-50.94140540,-49.25458358
-6.37532749,-177.25740579,1.90483192,5.65412653,-11.02875169,-0.30625074
3.05472373,-0.06720337,2.98887774

>  <COMPND>
    UNNAMED

>  <MASTER>
        0    0    0    0    0    0    0    0  109    0  109    0

>  <Name>
FB1.pdb

>  <RI>
0

>  <Rbt.Current_Directory>
/home/fc/tossine/FB1_39/p3/1_clust05

>  <Rbt.Executable>
rbdock/0.1.0

>  <Rbt.Library>
librxdock.so/0.1.0

>  <Rbt.Parameter_File>
/cluster/rxdock/data/scripts/dock.prm

>  <Rbt.Receptor>
rx_3.prm

>  <SCORE>
165.602

>  <SCORE.INTER>
138.168

>  <SCORE.INTER.CONST>
1

>  <SCORE.INTER.POLAR>
-0.64173

>  <SCORE.INTER.REPUL>
2.807

>  <SCORE.INTER.ROT>
32

>  <SCORE.INTER.VDW>
88.915

>  <SCORE.INTER.norm>
2.76336

>  <SCORE.INTRA>
24.6267

>  <SCORE.INTRA.DIHEDRAL>
38.1522

>  <SCORE.INTRA.DIHEDRAL.0>
47.3121

>  <SCORE.INTRA.POLAR>
1.47808

>  <SCORE.INTRA.POLAR.0>
-1.47808

>  <SCORE.INTRA.REPUL>
0

>  <SCORE.INTRA.REPUL.0>
0

>  <SCORE.INTRA.VDW>
0.525106

>  <SCORE.INTRA.VDW.0>
-2.78316

>  <SCORE.INTRA.norm>
0.492534

>  <SCORE.RESTR>
2.80743

>  <SCORE.RESTR.CAVITY>
2.80743

>  <SCORE.RESTR.norm>
0.0561486

>  <SCORE.SYSTEM>
0

>  <SCORE.SYSTEM.CONST>
0

>  <SCORE.SYSTEM.DIHEDRAL>
0

>  <SCORE.SYSTEM.norm>
0

>  <SCORE.heavy>
50

>  <SCORE.norm>
3.31204

$$$$
