FB1.pdb
  RxDock  10072008463D
librxdock.so/0.1.0
 59 58  0  0  0  0  0  0  0  0999 V2000
    1.4599  -11.0958    5.2391 C   0  0  0  0  0  0
    1.2952   -9.6770    5.7789 C   0  0  0  0  0  0
    1.3015   -8.6337    4.6495 C   0  0  0  0  0  0
    2.6977   -8.4209    4.0131 C   0  0  0  0  0  0
    2.7026   -7.5618    2.7007 C   0  0  0  0  0  0
    4.1662   -7.1883    2.3704 C   0  0  0  0  0  0
    2.0092   -8.2830    1.4691 C   0  0  0  0  0  0
    1.2073   -7.3525    0.4408 C   0  0  0  0  0  0
    0.4292   -6.0208    0.8271 C   0  0  0  0  0  0
   -0.1692   -5.1649   -0.4499 C   0  0  0  0  0  0
    0.9970   -4.4928   -1.1726 C   0  0  0  0  0  0
   -1.0458   -5.9874   -1.4986 C   0  0  0  0  0  0
   -0.4453   -6.7030   -2.8200 C   0  0  0  0  0  0
   -1.3526   -7.4508   -3.8562 C   0  0  0  0  0  0
   -0.7067   -8.6317   -4.7149 C   0  0  0  0  0  0
   -1.3861   -9.2822   -5.9836 C   0  0  0  0  0  0
   -1.9469   -8.3673   -7.1043 C   0  0  0  0  0  0
   -2.5290   -9.0902   -8.3801 C   0  0  0  0  0  0
   -3.3887   -8.2306   -9.3151 C   0  0  0  0  0  0
   -4.7106   -7.6306   -8.7575 C   0  0  0  0  0  0
   -4.7954   -6.1239   -8.3727 C   0  0  0  0  0  0
   -6.1055   -5.4164   -8.6896 C   0  0  0  0  0  0
   -4.4133   -5.9193   -6.9625 N   0  0  0  0  0  0
   -5.6720   -7.7987   -9.8304 O   0  0  0  0  0  0
   -1.4288   -9.6168   -9.1299 O   0  0  0  0  0  0
    0.1780   -5.6423   -3.5636 O   0  0  0  0  0  0
    2.1718   -6.9282   -0.5603 O   0  0  0  0  0  0
    2.2793   -7.6943   -1.6770 C   0  0  0  0  0  0
    1.6108   -8.6746   -1.9440 O   0  0  0  0  0  0
    3.3006   -7.0690   -2.5866 C   0  0  0  0  0  0
    3.8885   -5.7710   -2.0103 C   0  0  0  0  0  0
    5.4149   -5.8282   -1.8687 C   0  0  0  0  0  0
    5.8566   -5.3146   -0.5179 C   0  0  0  0  0  0
    6.2328   -4.1645   -0.3195 O   0  0  0  0  0  0
    5.7969   -6.2399    0.4512 O   0  0  0  0  0  0
    3.4932   -4.6574   -2.9900 C   0  0  0  0  0  0
    3.0770   -3.5674   -2.6281 O   0  0  0  0  0  0
    3.5952   -4.9962   -4.2826 O   0  0  0  0  0  0
    2.9579   -9.1872    0.7747 O   0  0  0  0  0  0
    3.3864  -10.3263    1.4357 C   0  0  0  0  0  0
    4.3305  -10.3662    2.2139 O   0  0  0  0  0  0
    2.5397  -11.5573    1.0866 C   0  0  0  0  0  0
    2.0990  -12.4411    2.2946 C   0  0  0  0  0  0
    0.7098  -13.1024    2.2382 C   0  0  0  0  0  0
   -0.4151  -12.1089    2.2854 C   0  0  0  0  0  0
   -0.2979  -10.8939    2.2041 O   0  0  0  0  0  0
   -1.6144  -12.6972    2.4113 O   0  0  0  0  0  0
    3.1039  -13.5312    2.6873 C   0  0  0  0  0  0
    3.0738  -14.6545    2.2248 O   0  0  0  0  0  0
    4.0998  -13.1332    3.5065 O   0  0  0  0  0  0
   -3.6779   -5.2154   -6.9144 H   0  0  0  0  0  0
   -3.9800   -6.7773   -6.6137 H   0  0  0  0  0  0
   -5.7228   -8.7684   -9.9664 H   0  0  0  0  0  0
   -0.9129   -8.8673   -9.4801 H   0  0  0  0  0  0
    0.7364   -6.0442   -4.2501 H   0  0  0  0  0  0
    6.3897   -6.0856    1.2116 H   0  0  0  0  0  0
    4.0774   -5.8441   -4.4475 H   0  0  0  0  0  0
   -1.4469  -13.6574    2.5182 H   0  0  0  0  0  0
    4.7497  -13.8305    3.7465 H   0  0  0  0  0  0
  1  2  1  0  0  0
  2  3  1  0  0  0
  3  4  1  0  0  0
  4  5  1  0  0  0
  5  6  1  0  0  0
  5  7  1  0  0  0
  7  8  1  0  0  0
  7 39  1  0  0  0
  8  9  1  0  0  0
  8 27  1  0  0  0
  9 10  1  0  0  0
 10 11  1  0  0  0
 10 12  1  0  0  0
 12 13  1  0  0  0
 13 14  1  0  0  0
 13 26  1  0  0  0
 14 15  1  0  0  0
 15 16  1  0  0  0
 16 17  1  0  0  0
 17 18  1  0  0  0
 18 19  1  0  0  0
 18 25  1  0  0  0
 19 20  1  0  0  0
 20 21  1  0  0  0
 20 24  1  0  0  0
 21 22  1  0  0  0
 21 23  1  0  0  0
 23 51  1  0  0  0
 23 52  1  0  0  0
 24 53  1  0  0  0
 25 54  1  0  0  0
 26 55  1  0  0  0
 27 28  1  0  0  0
 28 29  2  0  0  0
 28 30  1  0  0  0
 30 31  1  0  0  0
 31 32  1  0  0  0
 31 36  1  0  0  0
 32 33  1  0  0  0
 33 34  2  0  0  0
 33 35  1  0  0  0
 35 56  1  0  0  0
 36 37  2  0  0  0
 36 38  1  0  0  0
 38 57  1  0  0  0
 39 40  1  0  0  0
 40 41  2  0  0  0
 40 42  1  0  0  0
 42 43  1  0  0  0
 43 44  1  0  0  0
 43 48  1  0  0  0
 44 45  1  0  0  0
 45 46  2  0  0  0
 45 47  1  0  0  0
 47 58  1  0  0  0
 48 49  2  0  0  0
 48 50  1  0  0  0
 50 59  1  0  0  0
M  END
>  <AUTHOR>
    GENERATED BY OPEN BABEL 2.4.1

>  <CHROM.1>
-72.05683805,169.68400090,167.88555321,145.39942857,-32.32681687,68.26978817
173.46062796,92.24806343,-72.75159456,-91.60391584,-177.36840311,-152.98795750
166.42232740,-167.25123740,49.08253429,176.29070092,165.20224060,-62.60664196
-66.99356472,103.82647656,142.27704324,61.20131842,126.39824236,2.94518030
-0.90547129,122.41163706,-133.74874316,136.49144669,-96.33257521,155.91332895
-11.60796399,-85.62347282,-134.39111445,144.43494151,-66.62468068,-90.75460859
9.03439033,4.65358596,-179.16411476,0.98249397,-8.21981016,-1.40591255,0.87520699
0.72613793,2.35775894

>  <COMPND>
    UNNAMED

>  <MASTER>
        0    0    0    0    0    0    0    0  109    0  109    0

>  <Name>
FB1.pdb

>  <RI>
0

>  <Rbt.Current_Directory>
/home/fc/tossine/FB1_39/p3/1_clust05

>  <Rbt.Executable>
rbdock/0.1.0

>  <Rbt.Library>
librxdock.so/0.1.0

>  <Rbt.Parameter_File>
/cluster/rxdock/data/scripts/dock.prm

>  <Rbt.Receptor>
rx_2.prm

>  <SCORE>
55.721

>  <SCORE.INTER>
19.4303

>  <SCORE.INTER.CONST>
1

>  <SCORE.INTER.POLAR>
-1.78497

>  <SCORE.INTER.REPUL>
0.170969

>  <SCORE.INTER.ROT>
32

>  <SCORE.INTER.VDW>
-12.7556

>  <SCORE.INTER.norm>
0.388606

>  <SCORE.INTRA>
29.3989

>  <SCORE.INTRA.DIHEDRAL>
39.2134

>  <SCORE.INTRA.DIHEDRAL.0>
47.3121

>  <SCORE.INTRA.POLAR>
1.47808

>  <SCORE.INTRA.POLAR.0>
-1.47808

>  <SCORE.INTRA.REPUL>
0.0754196

>  <SCORE.INTRA.REPUL.0>
0

>  <SCORE.INTRA.VDW>
4.3896

>  <SCORE.INTRA.VDW.0>
-2.78316

>  <SCORE.INTRA.norm>
0.587977

>  <SCORE.RESTR>
6.89186

>  <SCORE.RESTR.CAVITY>
6.89186

>  <SCORE.RESTR.norm>
0.137837

>  <SCORE.SYSTEM>
0

>  <SCORE.SYSTEM.CONST>
0

>  <SCORE.SYSTEM.DIHEDRAL>
0

>  <SCORE.SYSTEM.norm>
0

>  <SCORE.heavy>
50

>  <SCORE.norm>
1.11442

$$$$
