FB1.pdb
  RxDock  10072009493D
librxdock.so/0.1.0
 59 58  0  0  0  0  0  0  0  0999 V2000
    0.9637   -4.3112    0.6498 C   0  0  0  0  0  0
    1.5606   -5.4384   -0.1897 C   0  0  0  0  0  0
    2.5733   -4.9077   -1.2178 C   0  0  0  0  0  0
    3.3945   -6.0247   -1.9090 C   0  0  0  0  0  0
    4.4710   -6.7135   -0.9996 C   0  0  0  0  0  0
    5.6193   -5.7066   -0.7588 C   0  0  0  0  0  0
    3.8887   -7.2498    0.3757 C   0  0  0  0  0  0
    2.9057   -8.5126    0.3044 C   0  0  0  0  0  0
    1.4192   -8.5480    0.8679 C   0  0  0  0  0  0
    1.0524   -9.8649    1.7912 C   0  0  0  0  0  0
    0.1319  -10.7806    0.9861 C   0  0  0  0  0  0
    2.2919  -10.7039    2.3433 C   0  0  0  0  0  0
    2.1541  -12.0755    3.1907 C   0  0  0  0  0  0
    1.0915  -12.2571    4.3283 C   0  0  0  0  0  0
    0.9923  -13.6767    5.0523 C   0  0  0  0  0  0
    2.0795  -14.2448    6.0471 C   0  0  0  0  0  0
    2.3207  -13.5323    7.4042 C   0  0  0  0  0  0
    3.2040  -12.2255    7.3678 C   0  0  0  0  0  0
    3.1672  -11.3455    8.6234 C   0  0  0  0  0  0
    1.7936  -10.7883    9.0934 C   0  0  0  0  0  0
    1.7037   -9.8415   10.3266 C   0  0  0  0  0  0
    2.0348   -8.3760   10.0812 C   0  0  0  0  0  0
    0.3999   -9.9814   11.0026 N   0  0  0  0  0  0
    1.3165   -9.9960    7.9761 O   0  0  0  0  0  0
    4.5600  -12.6155    7.1253 O   0  0  0  0  0  0
    1.8353  -13.0822    2.2152 O   0  0  0  0  0  0
    2.7640   -8.8382   -1.1050 O   0  0  0  0  0  0
    2.3093  -10.0819   -1.4081 C   0  0  0  0  0  0
    2.4519  -11.0841   -0.7338 O   0  0  0  0  0  0
    1.5054   -9.9988   -2.6762 C   0  0  0  0  0  0
    0.2109   -9.1884   -2.5025 C   0  0  0  0  0  0
    0.4110   -7.6929   -2.7795 C   0  0  0  0  0  0
   -0.8847   -6.9313   -2.6228 C   0  0  0  0  0  0
   -1.0722   -6.0825   -1.7579 O   0  0  0  0  0  0
   -1.8168   -7.2713   -3.5253 O   0  0  0  0  0  0
   -0.7933   -9.7780   -3.5025 C   0  0  0  0  0  0
   -1.7780  -10.4156   -3.1615 O   0  0  0  0  0  0
   -0.4749   -9.5783   -4.7889 O   0  0  0  0  0  0
    4.9676   -7.4429    1.3749 O   0  0  0  0  0  0
    4.6444   -7.3567    2.7189 C   0  0  0  0  0  0
    5.1384   -8.0484    3.5997 O   0  0  0  0  0  0
    3.5832   -6.2837    2.9964 C   0  0  0  0  0  0
    2.7995   -6.4370    4.3369 C   0  0  0  0  0  0
    2.0165   -5.2190    4.8603 C   0  0  0  0  0  0
    1.0730   -5.5637    5.9763 C   0  0  0  0  0  0
   -0.1461   -5.4706    5.9344 O   0  0  0  0  0  0
    1.7108   -6.0202    7.0649 O   0  0  0  0  0  0
    1.8506   -7.6409    4.3867 C   0  0  0  0  0  0
    0.7877   -7.6686    3.7985 O   0  0  0  0  0  0
    2.3203   -8.7219    5.0440 O   0  0  0  0  0  0
    0.2560  -10.9590   11.2519 H   0  0  0  0  0  0
   -0.3410   -9.7691   10.3306 H   0  0  0  0  0  0
    1.1579  -10.6480    7.2612 H   0  0  0  0  0  0
    5.1382  -11.8651    7.3555 H   0  0  0  0  0  0
    2.5255  -13.0673    1.5312 H   0  0  0  0  0  0
   -2.6229   -6.7203   -3.5193 H   0  0  0  0  0  0
    0.4557   -9.2780   -4.9391 H   0  0  0  0  0  0
    2.6014   -6.3054    6.7702 H   0  0  0  0  0  0
    3.1436   -8.5743    5.5602 H   0  0  0  0  0  0
  1  2  1  0  0  0
  2  3  1  0  0  0
  3  4  1  0  0  0
  4  5  1  0  0  0
  5  6  1  0  0  0
  5  7  1  0  0  0
  7  8  1  0  0  0
  7 39  1  0  0  0
  8  9  1  0  0  0
  8 27  1  0  0  0
  9 10  1  0  0  0
 10 11  1  0  0  0
 10 12  1  0  0  0
 12 13  1  0  0  0
 13 14  1  0  0  0
 13 26  1  0  0  0
 14 15  1  0  0  0
 15 16  1  0  0  0
 16 17  1  0  0  0
 17 18  1  0  0  0
 18 19  1  0  0  0
 18 25  1  0  0  0
 19 20  1  0  0  0
 20 21  1  0  0  0
 20 24  1  0  0  0
 21 22  1  0  0  0
 21 23  1  0  0  0
 23 51  1  0  0  0
 23 52  1  0  0  0
 24 53  1  0  0  0
 25 54  1  0  0  0
 26 55  1  0  0  0
 27 28  1  0  0  0
 28 29  2  0  0  0
 28 30  1  0  0  0
 30 31  1  0  0  0
 31 32  1  0  0  0
 31 36  1  0  0  0
 32 33  1  0  0  0
 33 34  2  0  0  0
 33 35  1  0  0  0
 35 56  1  0  0  0
 36 37  2  0  0  0
 36 38  1  0  0  0
 38 57  1  0  0  0
 39 40  1  0  0  0
 40 41  2  0  0  0
 40 42  1  0  0  0
 42 43  1  0  0  0
 43 44  1  0  0  0
 43 48  1  0  0  0
 44 45  1  0  0  0
 45 46  2  0  0  0
 45 47  1  0  0  0
 47 58  1  0  0  0
 48 49  2  0  0  0
 48 50  1  0  0  0
 50 59  1  0  0  0
M  END
>  <AUTHOR>
    GENERATED BY OPEN BABEL 2.4.1

>  <CHROM.1>
169.33134002,-72.11517478,-71.17361897,69.85346320,-122.99307883,153.47147726
-132.13026099,161.26487876,-107.28985584,-176.19600901,-42.49138957,176.98249412
55.42447392,71.18384000,65.47696983,-79.07686323,165.88241979,-58.30180190
-163.80530619,-177.44446352,80.88580373,66.08999772,55.64464564,-28.23432887
-66.62036851,89.26100994,179.02930963,110.73270726,114.96995121,-172.76167276
14.07243059,143.47133778,159.35555683,163.48493161,167.44570169,-74.80415607
-115.97206290,-18.96135778,10.73953717,1.83194201,-8.84338242,2.49244029
-2.12310349,1.35581165,2.35583771

>  <COMPND>
    UNNAMED

>  <MASTER>
        0    0    0    0    0    0    0    0  109    0  109    0

>  <Name>
FB1.pdb

>  <RI>
0

>  <Rbt.Current_Directory>
/home/fc/tossine/FB1_39/p3/1_clust05

>  <Rbt.Executable>
rbdock/0.1.0

>  <Rbt.Library>
librxdock.so/0.1.0

>  <Rbt.Parameter_File>
/cluster/rxdock/data/scripts/dock.prm

>  <Rbt.Receptor>
rx_4.prm

>  <SCORE>
42.9802

>  <SCORE.INTER>
27.5594

>  <SCORE.INTER.CONST>
1

>  <SCORE.INTER.POLAR>
-1.82586

>  <SCORE.INTER.REPUL>
1.09469

>  <SCORE.INTER.ROT>
32

>  <SCORE.INTER.VDW>
-9.10615

>  <SCORE.INTER.norm>
0.551187

>  <SCORE.INTRA>
12.0422

>  <SCORE.INTRA.DIHEDRAL>
16.153

>  <SCORE.INTRA.DIHEDRAL.0>
47.3121

>  <SCORE.INTRA.POLAR>
1.47808

>  <SCORE.INTRA.POLAR.0>
-1.47808

>  <SCORE.INTRA.REPUL>
0.00533878

>  <SCORE.INTRA.REPUL.0>
0

>  <SCORE.INTRA.VDW>
-1.08644

>  <SCORE.INTRA.VDW.0>
-2.78316

>  <SCORE.INTRA.norm>
0.240844

>  <SCORE.RESTR>
3.37861

>  <SCORE.RESTR.CAVITY>
3.37861

>  <SCORE.RESTR.norm>
0.0675722

>  <SCORE.SYSTEM>
0

>  <SCORE.SYSTEM.CONST>
0

>  <SCORE.SYSTEM.DIHEDRAL>
0

>  <SCORE.SYSTEM.norm>
0

>  <SCORE.heavy>
50

>  <SCORE.norm>
0.859604

$$$$
