FB1.pdb
  RxDock  10072008403D
librxdock.so/0.1.0
 59 58  0  0  0  0  0  0  0  0999 V2000
    4.1796   -4.3567    5.4989 C   0  0  0  0  0  0
    4.3422   -5.6872    4.7676 C   0  0  0  0  0  0
    2.9885   -6.3787    4.5360 C   0  0  0  0  0  0
    3.0942   -7.6789    3.7005 C   0  0  0  0  0  0
    1.7400   -8.4420    3.4901 C   0  0  0  0  0  0
    0.7819   -7.5216    2.6992 C   0  0  0  0  0  0
    1.9088   -9.8430    2.7645 C   0  0  0  0  0  0
    2.6222   -9.8362    1.3302 C   0  0  0  0  0  0
    4.0464   -9.2011    1.0196 C   0  0  0  0  0  0
    4.0088   -7.7357    0.2630 C   0  0  0  0  0  0
    2.5587   -7.4093   -0.0905 C   0  0  0  0  0  0
    4.6521   -6.5147    1.0630 C   0  0  0  0  0  0
    4.6524   -4.9843    0.5370 C   0  0  0  0  0  0
    5.1617   -4.5869   -0.8909 C   0  0  0  0  0  0
    4.5910   -5.3879   -2.1486 C   0  0  0  0  0  0
    3.1158   -5.2493   -2.6957 C   0  0  0  0  0  0
    2.3686   -6.5091   -3.2074 C   0  0  0  0  0  0
    0.8257   -6.3465   -3.4941 C   0  0  0  0  0  0
    0.1217   -7.5524   -4.1285 C   0  0  0  0  0  0
   -1.3659   -7.3977   -4.5546 C   0  0  0  0  0  0
   -2.0206   -8.4213   -5.5288 C   0  0  0  0  0  0
   -1.5768   -8.3517   -6.9833 C   0  0  0  0  0  0
   -1.9002   -9.7955   -5.0059 N   0  0  0  0  0  0
   -2.1167   -7.5214   -3.3198 O   0  0  0  0  0  0
    0.1761   -6.0406   -2.2554 O   0  0  0  0  0  0
    3.2725   -4.5825    0.5685 O   0  0  0  0  0  0
    2.7555  -11.2288    0.9361 O   0  0  0  0  0  0
    3.7825  -11.9293    1.4839 C   0  0  0  0  0  0
    4.5092  -11.5548    2.3845 O   0  0  0  0  0  0
    3.8123  -13.2970    0.8594 C   0  0  0  0  0  0
    2.4512  -13.7097    0.2767 C   0  0  0  0  0  0
    2.3693  -13.4914   -1.2395 C   0  0  0  0  0  0
    1.4147  -12.3701   -1.5780 C   0  0  0  0  0  0
    1.1934  -11.4201   -0.8349 O   0  0  0  0  0  0
    0.8289  -12.5105   -2.7764 O   0  0  0  0  0  0
    2.2876  -15.2008    0.6023 C   0  0  0  0  0  0
    2.7186  -16.0912   -0.1145 O   0  0  0  0  0  0
    1.5870  -15.4497    1.7173 O   0  0  0  0  0  0
    2.5060  -10.8494    3.6758 O   0  0  0  0  0  0
    1.9134  -11.0541    4.9107 C   0  0  0  0  0  0
    0.7243  -10.8875    5.1487 O   0  0  0  0  0  0
    2.9196  -11.5210    5.9709 C   0  0  0  0  0  0
    3.3340  -13.0234    5.8963 C   0  0  0  0  0  0
    2.7188  -13.9951    6.9198 C   0  0  0  0  0  0
    3.0395  -13.6309    8.3407 C   0  0  0  0  0  0
    3.8799  -14.1742    9.0443 O   0  0  0  0  0  0
    2.3043  -12.6000    8.7847 O   0  0  0  0  0  0
    3.1713  -13.6617    4.5112 C   0  0  0  0  0  0
    2.1627  -13.5432    3.8440 O   0  0  0  0  0  0
    4.2678  -14.2814    4.0265 O   0  0  0  0  0  0
   -2.4607  -10.4223   -5.5816 H   0  0  0  0  0  0
   -2.3321   -9.8317   -4.0798 H   0  0  0  0  0  0
   -1.9334   -8.4333   -3.0099 H   0  0  0  0  0  0
   -0.7868   -6.1086   -2.3920 H   0  0  0  0  0  0
    2.8317   -4.9593   -0.2113 H   0  0  0  0  0  0
    1.2721  -13.1307   -3.3866 H   0  0  0  0  0  0
    1.5088  -16.4089    1.9469 H   0  0  0  0  0  0
    1.6166  -12.4322    8.1063 H   0  0  0  0  0  0
    5.0414  -13.6978    3.8619 H   0  0  0  0  0  0
  1  2  1  0  0  0
  2  3  1  0  0  0
  3  4  1  0  0  0
  4  5  1  0  0  0
  5  6  1  0  0  0
  5  7  1  0  0  0
  7  8  1  0  0  0
  7 39  1  0  0  0
  8  9  1  0  0  0
  8 27  1  0  0  0
  9 10  1  0  0  0
 10 11  1  0  0  0
 10 12  1  0  0  0
 12 13  1  0  0  0
 13 14  1  0  0  0
 13 26  1  0  0  0
 14 15  1  0  0  0
 15 16  1  0  0  0
 16 17  1  0  0  0
 17 18  1  0  0  0
 18 19  1  0  0  0
 18 25  1  0  0  0
 19 20  1  0  0  0
 20 21  1  0  0  0
 20 24  1  0  0  0
 21 22  1  0  0  0
 21 23  1  0  0  0
 23 51  1  0  0  0
 23 52  1  0  0  0
 24 53  1  0  0  0
 25 54  1  0  0  0
 26 55  1  0  0  0
 27 28  1  0  0  0
 28 29  2  0  0  0
 28 30  1  0  0  0
 30 31  1  0  0  0
 31 32  1  0  0  0
 31 36  1  0  0  0
 32 33  1  0  0  0
 33 34  2  0  0  0
 33 35  1  0  0  0
 35 56  1  0  0  0
 36 37  2  0  0  0
 36 38  1  0  0  0
 38 57  1  0  0  0
 39 40  1  0  0  0
 40 41  2  0  0  0
 40 42  1  0  0  0
 42 43  1  0  0  0
 43 44  1  0  0  0
 43 48  1  0  0  0
 44 45  1  0  0  0
 45 46  2  0  0  0
 45 47  1  0  0  0
 47 58  1  0  0  0
 48 49  2  0  0  0
 48 50  1  0  0  0
 50 59  1  0  0  0
M  END
>  <AUTHOR>
    GENERATED BY OPEN BABEL 2.4.1

>  <CHROM.1>
175.52373083,177.76347647,62.43161537,-56.83347570,53.97615018,52.92048860
-102.49637302,-79.65758407,-5.90391721,-176.77437833,-51.77476544,50.50082609
-78.35431513,71.36344619,-141.37906689,169.39306323,174.20793300,-174.32128405
-169.24983721,163.62959263,-71.97324689,-63.22339605,171.08725311,8.99719459
-23.13235546,98.94487572,-110.86222147,-86.84436687,29.14214021,-18.20463565
-177.85460457,28.65634017,-77.58167677,-103.47991503,-60.05580717,-47.68570982
-102.37545985,9.58158089,-63.63766774,2.26249409,-9.91605118,1.20696121,-0.97234717
-1.18403795,-0.44062650

>  <COMPND>
    UNNAMED

>  <MASTER>
        0    0    0    0    0    0    0    0  109    0  109    0

>  <Name>
FB1.pdb

>  <RI>
0

>  <Rbt.Current_Directory>
/home/fc/tossine/FB1_39/p3/1_clust05

>  <Rbt.Executable>
rbdock/0.1.0

>  <Rbt.Library>
librxdock.so/0.1.0

>  <Rbt.Parameter_File>
/cluster/rxdock/data/scripts/dock.prm

>  <Rbt.Receptor>
rx_2.prm

>  <SCORE>
58.6347

>  <SCORE.INTER>
29.9522

>  <SCORE.INTER.CONST>
1

>  <SCORE.INTER.POLAR>
-2.18507

>  <SCORE.INTER.REPUL>
0.356272

>  <SCORE.INTER.ROT>
32

>  <SCORE.INTER.VDW>
-1.79994

>  <SCORE.INTER.norm>
0.599043

>  <SCORE.INTRA>
25.4513

>  <SCORE.INTRA.DIHEDRAL>
31.0956

>  <SCORE.INTRA.DIHEDRAL.0>
47.3121

>  <SCORE.INTRA.POLAR>
1.07081

>  <SCORE.INTRA.POLAR.0>
-1.47808

>  <SCORE.INTRA.REPUL>
0.00316976

>  <SCORE.INTRA.REPUL.0>
0

>  <SCORE.INTRA.VDW>
6.24693

>  <SCORE.INTRA.VDW.0>
-2.78316

>  <SCORE.INTRA.norm>
0.509027

>  <SCORE.RESTR>
3.23124

>  <SCORE.RESTR.CAVITY>
3.23124

>  <SCORE.RESTR.norm>
0.0646249

>  <SCORE.SYSTEM>
0

>  <SCORE.SYSTEM.CONST>
0

>  <SCORE.SYSTEM.DIHEDRAL>
0

>  <SCORE.SYSTEM.norm>
0

>  <SCORE.heavy>
50

>  <SCORE.norm>
1.17269

$$$$
