FB1.pdb
  RxDock  10072008133D
librxdock.so/0.1.0
 59 58  0  0  0  0  0  0  0  0999 V2000
   -0.8839  -10.1368   -1.5982 C   0  0  0  0  0  0
    0.4410  -10.5368   -2.2432 C   0  0  0  0  0  0
    1.1737  -11.6095   -1.4206 C   0  0  0  0  0  0
    1.6673  -11.1012   -0.0431 C   0  0  0  0  0  0
    3.1121  -10.4905   -0.0421 C   0  0  0  0  0  0
    3.0165   -9.0167   -0.4999 C   0  0  0  0  0  0
    3.8461  -10.6026    1.3602 C   0  0  0  0  0  0
    2.9521  -10.3661    2.6682 C   0  0  0  0  0  0
    1.9797   -9.1297    2.9006 C   0  0  0  0  0  0
    2.7120   -7.6516    2.8866 C   0  0  0  0  0  0
    4.1425   -7.8141    3.3979 C   0  0  0  0  0  0
    2.7280   -6.8881    1.4860 C   0  0  0  0  0  0
    3.0732   -5.3167    1.3129 C   0  0  0  0  0  0
    2.7459   -4.5242    0.0010 C   0  0  0  0  0  0
    1.2545   -4.5812   -0.5661 C   0  0  0  0  0  0
    0.2927   -5.8247   -0.4135 C   0  0  0  0  0  0
   -0.9882   -5.9120   -1.2848 C   0  0  0  0  0  0
   -0.7745   -6.0295   -2.8436 C   0  0  0  0  0  0
   -1.9387   -6.6239   -3.6460 C   0  0  0  0  0  0
   -1.7195   -6.9150   -5.1578 C   0  0  0  0  0  0
   -0.7597   -8.0537   -5.6133 C   0  0  0  0  0  0
    0.2038   -8.5884   -4.5630 C   0  0  0  0  0  0
   -1.5121   -9.1531   -6.2471 N   0  0  0  0  0  0
   -3.0265   -7.3063   -5.6501 O   0  0  0  0  0  0
   -0.4941   -4.7204   -3.3509 O   0  0  0  0  0  0
    2.3227   -4.6573    2.3466 O   0  0  0  0  0  0
    2.0892  -11.5297    2.7865 O   0  0  0  0  0  0
    1.1436  -11.4999    3.7612 C   0  0  0  0  0  0
   -0.0613  -11.5031    3.5950 O   0  0  0  0  0  0
    1.8335  -11.5649    5.0959 C   0  0  0  0  0  0
    1.7975  -12.9731    5.7110 C   0  0  0  0  0  0
    2.0641  -14.0742    4.6767 C   0  0  0  0  0  0
    3.4869  -14.0144    4.1713 C   0  0  0  0  0  0
    4.0627  -12.9694    3.8880 O   0  0  0  0  0  0
    4.0663  -15.2190    4.0621 O   0  0  0  0  0  0
    2.8892  -12.9902    6.7898 C   0  0  0  0  0  0
    3.7463  -12.1249    6.8851 O   0  0  0  0  0  0
    2.8564  -14.0625    7.5928 O   0  0  0  0  0  0
    4.6406  -11.8519    1.4503 O   0  0  0  0  0  0
    4.0151  -13.0531    1.1607 C   0  0  0  0  0  0
    2.8202  -13.1770    0.9255 O   0  0  0  0  0  0
    4.9923  -14.2360    1.1643 C   0  0  0  0  0  0
    4.3410  -15.6525    1.2257 C   0  0  0  0  0  0
    3.5061  -16.1177    0.0187 C   0  0  0  0  0  0
    2.0449  -15.8024    0.1598 C   0  0  0  0  0  0
    1.2416  -15.7160   -0.7589 O   0  0  0  0  0  0
    1.6773  -15.6345    1.4392 O   0  0  0  0  0  0
    5.3142  -16.7875    1.5676 C   0  0  0  0  0  0
    6.4430  -16.5900    1.9719 O   0  0  0  0  0  0
    4.8006  -18.0333    1.4930 O   0  0  0  0  0  0
   -2.2990   -8.7643   -6.7649 H   0  0  0  0  0  0
   -1.9363   -9.7244   -5.5128 H   0  0  0  0  0  0
   -3.5181   -6.4629   -5.7422 H   0  0  0  0  0  0
    0.4405   -4.5154   -3.1637 H   0  0  0  0  0  0
    2.7684   -3.8189    2.5536 H   0  0  0  0  0  0
    4.9916  -15.2096    3.7503 H   0  0  0  0  0  0
    2.0750  -14.6536    7.4559 H   0  0  0  0  0  0
    0.7246  -15.4032    1.4302 H   0  0  0  0  0  0
    3.8337  -18.0791    1.3223 H   0  0  0  0  0  0
  1  2  1  0  0  0
  2  3  1  0  0  0
  3  4  1  0  0  0
  4  5  1  0  0  0
  5  6  1  0  0  0
  5  7  1  0  0  0
  7  8  1  0  0  0
  7 39  1  0  0  0
  8  9  1  0  0  0
  8 27  1  0  0  0
  9 10  1  0  0  0
 10 11  1  0  0  0
 10 12  1  0  0  0
 12 13  1  0  0  0
 13 14  1  0  0  0
 13 26  1  0  0  0
 14 15  1  0  0  0
 15 16  1  0  0  0
 16 17  1  0  0  0
 17 18  1  0  0  0
 18 19  1  0  0  0
 18 25  1  0  0  0
 19 20  1  0  0  0
 20 21  1  0  0  0
 20 24  1  0  0  0
 21 22  1  0  0  0
 21 23  1  0  0  0
 23 51  1  0  0  0
 23 52  1  0  0  0
 24 53  1  0  0  0
 25 54  1  0  0  0
 26 55  1  0  0  0
 27 28  1  0  0  0
 28 29  2  0  0  0
 28 30  1  0  0  0
 30 31  1  0  0  0
 31 32  1  0  0  0
 31 36  1  0  0  0
 32 33  1  0  0  0
 33 34  2  0  0  0
 33 35  1  0  0  0
 35 56  1  0  0  0
 36 37  2  0  0  0
 36 38  1  0  0  0
 38 57  1  0  0  0
 39 40  1  0  0  0
 40 41  2  0  0  0
 40 42  1  0  0  0
 42 43  1  0  0  0
 43 44  1  0  0  0
 43 48  1  0  0  0
 44 45  1  0  0  0
 45 46  2  0  0  0
 45 47  1  0  0  0
 47 58  1  0  0  0
 48 49  2  0  0  0
 48 50  1  0  0  0
 50 59  1  0  0  0
M  END
>  <AUTHOR>
    GENERATED BY OPEN BABEL 2.4.1

>  <CHROM.1>
-67.00905044,-89.96537970,83.15057869,-38.82107872,-49.92436168,-52.06957352
-60.35254625,-173.98804576,-30.35714922,165.21498505,-164.71773819,52.71071599
155.06781427,-31.77839188,-165.15499419,64.12713483,158.11194682,-173.00199092
79.04042204,68.95194267,-15.85736769,77.40583821,35.01577831,115.60556585
-100.64353036,41.86767742,67.42701343,-13.23464201,-42.39390549,-179.11118222
-6.59285720,-5.51188432,164.43787456,66.40772695,-92.52213051,11.53774924
158.47947637,178.03302480,-6.30886408,2.01186791,-10.83128042,0.87137804
2.72961997,-1.16140537,0.45747570

>  <COMPND>
    UNNAMED

>  <MASTER>
        0    0    0    0    0    0    0    0  109    0  109    0

>  <Name>
FB1.pdb

>  <RI>
0

>  <Rbt.Current_Directory>
/home/fc/tossine/FB1_39/p3/1_clust05

>  <Rbt.Executable>
rbdock/0.1.0

>  <Rbt.Library>
librxdock.so/0.1.0

>  <Rbt.Parameter_File>
/cluster/rxdock/data/scripts/dock.prm

>  <Rbt.Receptor>
rx_1.prm

>  <SCORE>
50.7731

>  <SCORE.INTER>
22.7088

>  <SCORE.INTER.CONST>
1

>  <SCORE.INTER.POLAR>
-0.948018

>  <SCORE.INTER.REPUL>
0.371476

>  <SCORE.INTER.ROT>
32

>  <SCORE.INTER.VDW>
-13.3253

>  <SCORE.INTER.norm>
0.454175

>  <SCORE.INTRA>
22.175

>  <SCORE.INTRA.DIHEDRAL>
19.2731

>  <SCORE.INTRA.DIHEDRAL.0>
47.3121

>  <SCORE.INTRA.POLAR>
1.35359

>  <SCORE.INTRA.POLAR.0>
-1.47808

>  <SCORE.INTRA.REPUL>
0

>  <SCORE.INTRA.REPUL.0>
0

>  <SCORE.INTRA.VDW>
7.93631

>  <SCORE.INTRA.VDW.0>
-2.78316

>  <SCORE.INTRA.norm>
0.443501

>  <SCORE.RESTR>
5.88926

>  <SCORE.RESTR.CAVITY>
5.88926

>  <SCORE.RESTR.norm>
0.117785

>  <SCORE.SYSTEM>
0

>  <SCORE.SYSTEM.CONST>
0

>  <SCORE.SYSTEM.DIHEDRAL>
0

>  <SCORE.SYSTEM.norm>
0

>  <SCORE.heavy>
50

>  <SCORE.norm>
1.01546

$$$$
