FB1.pdb
  RxDock  10072009463D
librxdock.so/0.1.0
 59 58  0  0  0  0  0  0  0  0999 V2000
    3.1852   -1.2043    2.1193 C   0  0  0  0  0  0
    2.7262   -1.5221    0.6981 C   0  0  0  0  0  0
    2.4883   -3.0282    0.5000 C   0  0  0  0  0  0
    1.0125   -3.4525    0.7047 C   0  0  0  0  0  0
    0.5332   -4.6388   -0.2027 C   0  0  0  0  0  0
    0.8835   -4.2998   -1.6701 C   0  0  0  0  0  0
    1.1424   -6.0427    0.2163 C   0  0  0  0  0  0
    1.5715   -6.2191    1.7496 C   0  0  0  0  0  0
    0.6395   -6.7998    2.8996 C   0  0  0  0  0  0
    1.0377   -6.3260    4.4287 C   0  0  0  0  0  0
    0.5306   -4.9007    4.6424 C   0  0  0  0  0  0
    0.5189   -7.2614    5.6122 C   0  0  0  0  0  0
    0.3464   -8.8659    5.4918 C   0  0  0  0  0  0
    1.5497   -9.8553    5.6626 C   0  0  0  0  0  0
    1.2520  -11.4235    5.6248 C   0  0  0  0  0  0
    1.2096  -12.2884    4.3039 C   0  0  0  0  0  0
    2.2481  -12.0224    3.1822 C   0  0  0  0  0  0
    1.7964  -12.3584    1.7083 C   0  0  0  0  0  0
    2.2420  -13.7175    1.1544 C   0  0  0  0  0  0
    2.0779  -13.9825   -0.3691 C   0  0  0  0  0  0
    2.3508  -12.8504   -1.4032 C   0  0  0  0  0  0
    1.1278  -12.2038   -2.0385 C   0  0  0  0  0  0
    3.2537  -11.8294   -0.8385 N   0  0  0  0  0  0
    3.0556  -15.0104   -0.6710 O   0  0  0  0  0  0
    0.3670  -12.2937    1.6588 O   0  0  0  0  0  0
   -0.5792   -9.2173    6.5341 O   0  0  0  0  0  0
    2.7308   -7.0957    1.7490 O   0  0  0  0  0  0
    3.8795   -6.5990    1.2207 C   0  0  0  0  0  0
    4.0842   -5.4428    0.9031 O   0  0  0  0  0  0
    4.9025   -7.7006    1.1853 C   0  0  0  0  0  0
    4.6369   -8.7870    2.2397 C   0  0  0  0  0  0
    3.6011   -8.3524    3.2846 C   0  0  0  0  0  0
    4.1557   -7.2739    4.1860 C   0  0  0  0  0  0
    3.6977   -6.1379    4.2456 O   0  0  0  0  0  0
    5.2019   -7.6779    4.9216 O   0  0  0  0  0  0
    4.1220  -10.0087    1.4662 C   0  0  0  0  0  0
    4.7818  -11.0245    1.3079 O   0  0  0  0  0  0
    2.9024   -9.8520    0.9332 O   0  0  0  0  0  0
    0.2855   -7.1593   -0.2514 O   0  0  0  0  0  0
    0.5136   -7.6810   -1.5139 C   0  0  0  0  0  0
    1.2133   -7.1541   -2.3691 O   0  0  0  0  0  0
   -0.2142   -9.0135   -1.7353 C   0  0  0  0  0  0
   -1.5130   -8.9409   -2.5970 C   0  0  0  0  0  0
   -1.7924   -7.6427   -3.3762 C   0  0  0  0  0  0
   -2.4535   -6.5865   -2.5385 C   0  0  0  0  0  0
   -3.1470   -6.7892   -1.5512 O   0  0  0  0  0  0
   -2.1904   -5.3455   -2.9757 O   0  0  0  0  0  0
   -1.6933  -10.1058   -3.5781 C   0  0  0  0  0  0
   -2.2050  -11.1618   -3.2624 O   0  0  0  0  0  0
   -1.3421   -9.8472   -4.8553 O   0  0  0  0  0  0
    2.7000  -11.0411   -0.5058 H   0  0  0  0  0  0
    3.8281  -11.4478   -1.5935 H   0  0  0  0  0  0
    3.8812  -14.6987   -0.2435 H   0  0  0  0  0  0
    0.0886  -12.4217    0.7333 H   0  0  0  0  0  0
   -1.3345   -8.6079    6.4836 H   0  0  0  0  0  0
    5.8376   -6.9769    5.1621 H   0  0  0  0  0  0
    2.6143   -8.9104    0.8382 H   0  0  0  0  0  0
   -1.3928   -5.4101   -3.5422 H   0  0  0  0  0  0
   -2.0832   -9.8399   -5.5010 H   0  0  0  0  0  0
  1  2  1  0  0  0
  2  3  1  0  0  0
  3  4  1  0  0  0
  4  5  1  0  0  0
  5  6  1  0  0  0
  5  7  1  0  0  0
  7  8  1  0  0  0
  7 39  1  0  0  0
  8  9  1  0  0  0
  8 27  1  0  0  0
  9 10  1  0  0  0
 10 11  1  0  0  0
 10 12  1  0  0  0
 12 13  1  0  0  0
 13 14  1  0  0  0
 13 26  1  0  0  0
 14 15  1  0  0  0
 15 16  1  0  0  0
 16 17  1  0  0  0
 17 18  1  0  0  0
 18 19  1  0  0  0
 18 25  1  0  0  0
 19 20  1  0  0  0
 20 21  1  0  0  0
 20 24  1  0  0  0
 21 22  1  0  0  0
 21 23  1  0  0  0
 23 51  1  0  0  0
 23 52  1  0  0  0
 24 53  1  0  0  0
 25 54  1  0  0  0
 26 55  1  0  0  0
 27 28  1  0  0  0
 28 29  2  0  0  0
 28 30  1  0  0  0
 30 31  1  0  0  0
 31 32  1  0  0  0
 31 36  1  0  0  0
 32 33  1  0  0  0
 33 34  2  0  0  0
 33 35  1  0  0  0
 35 56  1  0  0  0
 36 37  2  0  0  0
 36 38  1  0  0  0
 38 57  1  0  0  0
 39 40  1  0  0  0
 40 41  2  0  0  0
 40 42  1  0  0  0
 42 43  1  0  0  0
 43 44  1  0  0  0
 43 48  1  0  0  0
 44 45  1  0  0  0
 45 46  2  0  0  0
 45 47  1  0  0  0
 47 58  1  0  0  0
 48 49  2  0  0  0
 48 50  1  0  0  0
 50 59  1  0  0  0
M  END
>  <AUTHOR>
    GENERATED BY OPEN BABEL 2.4.1

>  <CHROM.1>
94.90002428,146.63306076,-51.68914842,26.25894958,92.23584036,88.87771369
-155.92777975,68.53905966,77.92501158,32.51045281,81.82878805,175.83513350
48.02496087,87.40978436,39.71968185,-151.68950295,-97.56609942,-167.85594774
174.99451035,38.39653375,-104.65703441,-47.37923176,-98.69569927,9.99622267
-25.13201510,-13.16688582,-69.82280927,108.49245962,116.61602649,151.39933430
19.25983528,-13.04481691,102.73180431,12.28323529,-83.47053668,85.54830141
-25.81642120,-19.05979619,-113.05777416,1.44906017,-8.35858631,0.95755643
1.20891854,-1.08895019,0.11143919

>  <COMPND>
    UNNAMED

>  <MASTER>
        0    0    0    0    0    0    0    0  109    0  109    0

>  <Name>
FB1.pdb

>  <RI>
0

>  <Rbt.Current_Directory>
/home/fc/tossine/FB1_39/p3/1_clust05

>  <Rbt.Executable>
rbdock/0.1.0

>  <Rbt.Library>
librxdock.so/0.1.0

>  <Rbt.Parameter_File>
/cluster/rxdock/data/scripts/dock.prm

>  <Rbt.Receptor>
rx_4.prm

>  <SCORE>
71.2211

>  <SCORE.INTER>
21.1898

>  <SCORE.INTER.CONST>
1

>  <SCORE.INTER.POLAR>
-2.49527

>  <SCORE.INTER.REPUL>
1.65596

>  <SCORE.INTER.ROT>
32

>  <SCORE.INTER.VDW>
-16.0061

>  <SCORE.INTER.norm>
0.423795

>  <SCORE.INTRA>
39.978

>  <SCORE.INTRA.DIHEDRAL>
53.1195

>  <SCORE.INTRA.DIHEDRAL.0>
47.3121

>  <SCORE.INTRA.POLAR>
-0.024184

>  <SCORE.INTRA.POLAR.0>
-1.47808

>  <SCORE.INTRA.REPUL>
0

>  <SCORE.INTRA.REPUL.0>
0

>  <SCORE.INTRA.VDW>
13.5005

>  <SCORE.INTRA.VDW.0>
-2.78316

>  <SCORE.INTRA.norm>
0.79956

>  <SCORE.RESTR>
10.0533

>  <SCORE.RESTR.CAVITY>
10.0533

>  <SCORE.RESTR.norm>
0.201067

>  <SCORE.SYSTEM>
0

>  <SCORE.SYSTEM.CONST>
0

>  <SCORE.SYSTEM.DIHEDRAL>
0

>  <SCORE.SYSTEM.norm>
0

>  <SCORE.heavy>
50

>  <SCORE.norm>
1.42442

$$$$
