FB1.pdb
  RxDock  10072009533D
librxdock.so/0.1.0
 59 58  0  0  0  0  0  0  0  0999 V2000
   -1.1076   -4.9032    4.2277 C   0  0  0  0  0  0
   -0.9139   -5.8245    3.0256 C   0  0  0  0  0  0
    0.1435   -5.2768    2.0529 C   0  0  0  0  0  0
    1.0531   -6.3747    1.4473 C   0  0  0  0  0  0
    2.2136   -5.8437    0.5354 C   0  0  0  0  0  0
    3.1616   -4.9866    1.4057 C   0  0  0  0  0  0
    3.0123   -6.9956   -0.2083 C   0  0  0  0  0  0
    3.3820   -8.2948    0.6528 C   0  0  0  0  0  0
    3.1502   -8.4516    2.2180 C   0  0  0  0  0  0
    4.4716   -8.1406    3.1554 C   0  0  0  0  0  0
    5.5819   -7.5909    2.2614 C   0  0  0  0  0  0
    4.2422   -7.1566    4.3898 C   0  0  0  0  0  0
    3.3831   -5.7875    4.3116 C   0  0  0  0  0  0
    1.9164   -5.6838    4.8542 C   0  0  0  0  0  0
    1.4372   -6.7429    5.9487 C   0  0  0  0  0  0
    1.4867   -8.3091    5.7512 C   0  0  0  0  0  0
    0.3665   -9.0133    4.9407 C   0  0  0  0  0  0
    0.5247  -10.5677    4.7218 C   0  0  0  0  0  0
    1.5816  -11.0058    3.7003 C   0  0  0  0  0  0
    2.0375  -12.4926    3.7024 C   0  0  0  0  0  0
    2.7362  -13.1042    4.9526 C   0  0  0  0  0  0
    1.8261  -13.7401    5.9941 C   0  0  0  0  0  0
    3.8097  -14.0337    4.5525 N   0  0  0  0  0  0
    0.8121  -13.2530    3.5476 O   0  0  0  0  0  0
    0.8400  -11.1619    5.9856 O   0  0  0  0  0  0
    4.1359   -4.8344    5.0807 O   0  0  0  0  0  0
    2.6366   -9.3964    0.0667 O   0  0  0  0  0  0
    1.4780   -9.7526    0.6798 C   0  0  0  0  0  0
    0.7610   -9.0258    1.3410 O   0  0  0  0  0  0
    1.1692  -11.1801    0.3216 C   0  0  0  0  0  0
    2.4109  -11.9512   -0.1540 C   0  0  0  0  0  0
    3.0053  -12.8439    0.9429 C   0  0  0  0  0  0
    4.3033  -12.2737    1.4659 C   0  0  0  0  0  0
    4.4051  -11.1516    1.9499 O   0  0  0  0  0  0
    5.3411  -13.1158    1.3522 O   0  0  0  0  0  0
    1.9457  -12.8117   -1.3368 C   0  0  0  0  0  0
    1.9672  -14.0330   -1.3222 O   0  0  0  0  0  0
    1.5579  -12.1112   -2.4115 O   0  0  0  0  0  0
    2.3670   -7.3492   -1.4961 O   0  0  0  0  0  0
    2.9084   -6.8424   -2.6657 C   0  0  0  0  0  0
    4.0967   -6.6031   -2.8365 O   0  0  0  0  0  0
    1.8456   -6.6074   -3.7472 C   0  0  0  0  0  0
    0.4300   -7.1891   -3.4434 C   0  0  0  0  0  0
    0.3186   -8.6907   -3.1223 C   0  0  0  0  0  0
   -0.6432   -9.4129   -4.0211 C   0  0  0  0  0  0
   -0.5958   -9.4387   -5.2433 O   0  0  0  0  0  0
   -1.5901  -10.0717   -3.3357 O   0  0  0  0  0  0
   -0.3499   -6.4351   -2.3592 C   0  0  0  0  0  0
    0.0955   -6.2301   -1.2473 O   0  0  0  0  0  0
   -1.5314   -5.9142   -2.7517 O   0  0  0  0  0  0
    4.1642  -14.5109    5.3803 H   0  0  0  0  0  0
    4.6011  -13.4881    4.2039 H   0  0  0  0  0  0
    0.1925  -12.6351    3.1052 H   0  0  0  0  0  0
    0.1786  -10.8621    6.6362 H   0  0  0  0  0  0
    4.2459   -5.1916    5.9778 H   0  0  0  0  0  0
    5.1189  -14.0093    1.0270 H   0  0  0  0  0  0
    1.4808  -12.6435   -3.2419 H   0  0  0  0  0  0
   -2.2374  -10.4001   -3.9949 H   0  0  0  0  0  0
   -1.9493   -5.2940   -2.1139 H   0  0  0  0  0  0
  1  2  1  0  0  0
  2  3  1  0  0  0
  3  4  1  0  0  0
  4  5  1  0  0  0
  5  6  1  0  0  0
  5  7  1  0  0  0
  7  8  1  0  0  0
  7 39  1  0  0  0
  8  9  1  0  0  0
  8 27  1  0  0  0
  9 10  1  0  0  0
 10 11  1  0  0  0
 10 12  1  0  0  0
 12 13  1  0  0  0
 13 14  1  0  0  0
 13 26  1  0  0  0
 14 15  1  0  0  0
 15 16  1  0  0  0
 16 17  1  0  0  0
 17 18  1  0  0  0
 18 19  1  0  0  0
 18 25  1  0  0  0
 19 20  1  0  0  0
 20 21  1  0  0  0
 20 24  1  0  0  0
 21 22  1  0  0  0
 21 23  1  0  0  0
 23 51  1  0  0  0
 23 52  1  0  0  0
 24 53  1  0  0  0
 25 54  1  0  0  0
 26 55  1  0  0  0
 27 28  1  0  0  0
 28 29  2  0  0  0
 28 30  1  0  0  0
 30 31  1  0  0  0
 31 32  1  0  0  0
 31 36  1  0  0  0
 32 33  1  0  0  0
 33 34  2  0  0  0
 33 35  1  0  0  0
 35 56  1  0  0  0
 36 37  2  0  0  0
 36 38  1  0  0  0
 38 57  1  0  0  0
 39 40  1  0  0  0
 40 41  2  0  0  0
 40 42  1  0  0  0
 42 43  1  0  0  0
 43 44  1  0  0  0
 43 48  1  0  0  0
 44 45  1  0  0  0
 45 46  2  0  0  0
 45 47  1  0  0  0
 47 58  1  0  0  0
 48 49  2  0  0  0
 48 50  1  0  0  0
 50 59  1  0  0  0
M  END
>  <AUTHOR>
    GENERATED BY OPEN BABEL 2.4.1

>  <CHROM.1>
141.02812749,-175.55020822,63.40500431,-43.06793653,-6.88323913,100.89975141
-97.24193159,-98.84470641,7.21606180,-43.34438682,101.77442465,21.96059805
-57.39500893,-56.18122139,-80.59191964,176.86837878,-74.22143768,164.63329998
51.72079896,-62.14984135,89.91932209,24.46611080,-172.51613266,27.30433977
20.80681536,100.48564870,-107.50917719,-116.70992548,57.48499839,-5.31718323
165.06889453,31.22297386,-9.88584173,-55.52597766,-124.51214121,-54.51760259
55.97271618,172.08283536,-169.04573607,1.86218265,-9.03177957,1.19961315
0.18951452,-1.33450794,0.56455090

>  <COMPND>
    UNNAMED

>  <MASTER>
        0    0    0    0    0    0    0    0  109    0  109    0

>  <Name>
FB1.pdb

>  <RI>
0

>  <Rbt.Current_Directory>
/home/fc/tossine/FB1_39/p3/1_clust05

>  <Rbt.Executable>
rbdock/0.1.0

>  <Rbt.Library>
librxdock.so/0.1.0

>  <Rbt.Parameter_File>
/cluster/rxdock/data/scripts/dock.prm

>  <Rbt.Receptor>
rx_4.prm

>  <SCORE>
44.613

>  <SCORE.INTER>
6.82258

>  <SCORE.INTER.CONST>
1

>  <SCORE.INTER.POLAR>
-2.50348

>  <SCORE.INTER.REPUL>
0.947956

>  <SCORE.INTER.ROT>
32

>  <SCORE.INTER.VDW>
-26.8054

>  <SCORE.INTER.norm>
0.136452

>  <SCORE.INTRA>
35.4398

>  <SCORE.INTRA.DIHEDRAL>
45.8256

>  <SCORE.INTRA.DIHEDRAL.0>
47.3121

>  <SCORE.INTRA.POLAR>
1.47808

>  <SCORE.INTRA.POLAR.0>
-1.47808

>  <SCORE.INTRA.REPUL>
0

>  <SCORE.INTRA.REPUL.0>
0

>  <SCORE.INTRA.VDW>
7.5015

>  <SCORE.INTRA.VDW.0>
-2.78316

>  <SCORE.INTRA.norm>
0.708796

>  <SCORE.RESTR>
2.35066

>  <SCORE.RESTR.CAVITY>
2.35066

>  <SCORE.RESTR.norm>
0.0470132

>  <SCORE.SYSTEM>
0

>  <SCORE.SYSTEM.CONST>
0

>  <SCORE.SYSTEM.DIHEDRAL>
0

>  <SCORE.SYSTEM.norm>
0

>  <SCORE.heavy>
50

>  <SCORE.norm>
0.89226

$$$$
