FB1.pdb
  RxDock  10072009463D
librxdock.so/0.1.0
 59 58  0  0  0  0  0  0  0  0999 V2000
    3.8800   -9.8953    0.3623 C   0  0  0  0  0  0
    3.5716   -8.5264   -0.2397 C   0  0  0  0  0  0
    4.7214   -7.5316   -0.0108 C   0  0  0  0  0  0
    4.2970   -6.0502   -0.1687 C   0  0  0  0  0  0
    3.9045   -5.3284    1.1675 C   0  0  0  0  0  0
    4.2658   -3.8309    1.0347 C   0  0  0  0  0  0
    2.3782   -5.5111    1.5612 C   0  0  0  0  0  0
    1.6875   -6.9007    1.1635 C   0  0  0  0  0  0
    0.7654   -7.7717    2.1224 C   0  0  0  0  0  0
    1.4919   -9.1028    2.7718 C   0  0  0  0  0  0
    2.2720   -8.6726    4.0131 C   0  0  0  0  0  0
    0.5288  -10.3199    3.1405 C   0  0  0  0  0  0
    1.0472  -11.7633    3.6567 C   0  0  0  0  0  0
    2.4517  -12.3398    3.2680 C   0  0  0  0  0  0
    3.0646  -13.5100    4.1648 C   0  0  0  0  0  0
    4.3072  -14.3912    3.7477 C   0  0  0  0  0  0
    4.3488  -15.0351    2.3367 C   0  0  0  0  0  0
    4.4040  -14.0442    1.1103 C   0  0  0  0  0  0
    3.0537  -13.5708    0.5580 C   0  0  0  0  0  0
    1.9164  -14.6184    0.3929 C   0  0  0  0  0  0
    2.1832  -15.9676   -0.3379 C   0  0  0  0  0  0
    3.5419  -16.6108   -0.0981 C   0  0  0  0  0  0
    1.0927  -16.9279   -0.0830 N   0  0  0  0  0  0
    1.5593  -14.9901    1.7487 O   0  0  0  0  0  0
    5.1621  -12.8954    1.5044 O   0  0  0  0  0  0
    1.0688  -11.6571    5.0902 O   0  0  0  0  0  0
    0.8463   -6.6214    0.0117 O   0  0  0  0  0  0
    0.5931   -7.6552   -0.8325 C   0  0  0  0  0  0
    0.7153   -8.8383   -0.5779 O   0  0  0  0  0  0
    0.0350   -7.0983   -2.1130 C   0  0  0  0  0  0
    0.6283   -7.7749   -3.3591 C   0  0  0  0  0  0
   -0.3198   -7.7245   -4.5640 C   0  0  0  0  0  0
   -0.7722   -9.1108   -4.9601 C   0  0  0  0  0  0
   -1.6363   -9.3273   -5.8028 O   0  0  0  0  0  0
   -0.1348  -10.0895   -4.3009 O   0  0  0  0  0  0
    1.9225   -7.0133   -3.6768 C   0  0  0  0  0  0
    3.0212   -7.5468   -3.7024 O   0  0  0  0  0  0
    1.7557   -5.6987   -3.8767 O   0  0  0  0  0  0
    2.1473   -5.1648    2.9848 O   0  0  0  0  0  0
    1.3308   -4.0848    3.2763 C   0  0  0  0  0  0
    0.9520   -3.2573    2.4577 O   0  0  0  0  0  0
    0.9413   -4.0309    4.7594 C   0  0  0  0  0  0
    0.5067   -5.3878    5.3954 C   0  0  0  0  0  0
   -0.3992   -6.3174    4.5674 C   0  0  0  0  0  0
   -1.6263   -5.6277    4.0448 C   0  0  0  0  0  0
   -2.7764   -6.0251    4.1707 O   0  0  0  0  0  0
   -1.3399   -4.4775    3.4162 O   0  0  0  0  0  0
    1.6637   -6.2411    5.9297 C   0  0  0  0  0  0
    2.7993   -6.1534    5.5061 O   0  0  0  0  0  0
    1.3640   -7.0288    6.9838 O   0  0  0  0  0  0
    0.5709  -17.0774   -0.9455 H   0  0  0  0  0  0
    0.4229  -16.4986    0.5592 H   0  0  0  0  0  0
    0.5842  -15.0909    1.7281 H   0  0  0  0  0  0
    6.0270  -13.2005    1.8351 H   0  0  0  0  0  0
    0.1512  -11.6928    5.4083 H   0  0  0  0  0  0
    0.8365  -10.0954   -4.4011 H   0  0  0  0  0  0
    0.8210   -5.4259   -4.0516 H   0  0  0  0  0  0
   -2.1284   -4.2451    2.8817 H   0  0  0  0  0  0
    2.1302   -7.4829    7.3996 H   0  0  0  0  0  0
  1  2  1  0  0  0
  2  3  1  0  0  0
  3  4  1  0  0  0
  4  5  1  0  0  0
  5  6  1  0  0  0
  5  7  1  0  0  0
  7  8  1  0  0  0
  7 39  1  0  0  0
  8  9  1  0  0  0
  8 27  1  0  0  0
  9 10  1  0  0  0
 10 11  1  0  0  0
 10 12  1  0  0  0
 12 13  1  0  0  0
 13 14  1  0  0  0
 13 26  1  0  0  0
 14 15  1  0  0  0
 15 16  1  0  0  0
 16 17  1  0  0  0
 17 18  1  0  0  0
 18 19  1  0  0  0
 18 25  1  0  0  0
 19 20  1  0  0  0
 20 21  1  0  0  0
 20 24  1  0  0  0
 21 22  1  0  0  0
 21 23  1  0  0  0
 23 51  1  0  0  0
 23 52  1  0  0  0
 24 53  1  0  0  0
 25 54  1  0  0  0
 26 55  1  0  0  0
 27 28  1  0  0  0
 28 29  2  0  0  0
 28 30  1  0  0  0
 30 31  1  0  0  0
 31 32  1  0  0  0
 31 36  1  0  0  0
 32 33  1  0  0  0
 33 34  2  0  0  0
 33 35  1  0  0  0
 35 56  1  0  0  0
 36 37  2  0  0  0
 36 38  1  0  0  0
 38 57  1  0  0  0
 39 40  1  0  0  0
 40 41  2  0  0  0
 40 42  1  0  0  0
 42 43  1  0  0  0
 43 44  1  0  0  0
 43 48  1  0  0  0
 44 45  1  0  0  0
 45 46  2  0  0  0
 45 47  1  0  0  0
 47 58  1  0  0  0
 48 49  2  0  0  0
 48 50  1  0  0  0
 50 59  1  0  0  0
M  END
>  <AUTHOR>
    GENERATED BY OPEN BABEL 2.4.1

>  <CHROM.1>
-160.95194444,94.78011173,149.07641557,33.26289713,134.36608337,115.85715349
-103.13773475,153.83993172,83.64915028,174.07917354,-27.77246546,160.75048185
74.54851541,166.93166750,-48.82564746,64.25862275,-88.40496023,-43.11274611
54.44672889,-49.72664739,37.61755614,141.72918651,111.23054563,18.94765693
137.45589915,153.49731556,-114.88613406,120.29176964,172.26508509,-58.34655848
-16.63462942,-12.36179984,-44.58202093,-41.50107233,-52.26953650,-25.17626236
-128.56492350,162.90932948,-172.20108222,1.69344012,-8.94434978,1.19557254
0.60304418,1.35798799,-1.98969681

>  <COMPND>
    UNNAMED

>  <MASTER>
        0    0    0    0    0    0    0    0  109    0  109    0

>  <Name>
FB1.pdb

>  <RI>
0

>  <Rbt.Current_Directory>
/home/fc/tossine/FB1_39/p3/1_clust05

>  <Rbt.Executable>
rbdock/0.1.0

>  <Rbt.Library>
librxdock.so/0.1.0

>  <Rbt.Parameter_File>
/cluster/rxdock/data/scripts/dock.prm

>  <Rbt.Receptor>
rx_4.prm

>  <SCORE>
41.4881

>  <SCORE.INTER>
4.32073

>  <SCORE.INTER.CONST>
1

>  <SCORE.INTER.POLAR>
-3.57251

>  <SCORE.INTER.REPUL>
0.238882

>  <SCORE.INTER.ROT>
32

>  <SCORE.INTER.VDW>
-22.1271

>  <SCORE.INTER.norm>
0.0864147

>  <SCORE.INTRA>
29.3916

>  <SCORE.INTRA.DIHEDRAL>
47.7025

>  <SCORE.INTRA.DIHEDRAL.0>
47.3121

>  <SCORE.INTRA.POLAR>
1.47808

>  <SCORE.INTRA.POLAR.0>
-1.47808

>  <SCORE.INTRA.REPUL>
0

>  <SCORE.INTRA.REPUL.0>
0

>  <SCORE.INTRA.VDW>
0.514849

>  <SCORE.INTRA.VDW.0>
-2.78316

>  <SCORE.INTRA.norm>
0.587831

>  <SCORE.RESTR>
7.77581

>  <SCORE.RESTR.CAVITY>
7.77581

>  <SCORE.RESTR.norm>
0.155516

>  <SCORE.SYSTEM>
0

>  <SCORE.SYSTEM.CONST>
0

>  <SCORE.SYSTEM.DIHEDRAL>
0

>  <SCORE.SYSTEM.norm>
0

>  <SCORE.heavy>
50

>  <SCORE.norm>
0.829762

$$$$
