FB1.pdb
  RxDock  10072008473D
librxdock.so/0.1.0
 59 58  0  0  0  0  0  0  0  0999 V2000
    1.2557  -10.2988    4.9840 C   0  0  0  0  0  0
    1.6630   -8.9183    4.4743 C   0  0  0  0  0  0
    0.4555   -7.9726    4.3652 C   0  0  0  0  0  0
    0.6707   -6.8092    3.3652 C   0  0  0  0  0  0
    0.8718   -7.2483    1.8728 C   0  0  0  0  0  0
    0.5312   -6.0456    0.9627 C   0  0  0  0  0  0
    2.3281   -7.7982    1.5653 C   0  0  0  0  0  0
    2.4352   -9.0602    0.5843 C   0  0  0  0  0  0
    2.3450  -10.5816    1.0374 C   0  0  0  0  0  0
    3.7959  -11.3481    1.2070 C   0  0  0  0  0  0
    4.7824  -10.3805    1.8587 C   0  0  0  0  0  0
    3.7755  -12.7200    2.0207 C   0  0  0  0  0  0
    3.2283  -14.1211    1.4241 C   0  0  0  0  0  0
    4.1144  -15.4125    1.3655 C   0  0  0  0  0  0
    5.0078  -15.7763    2.6377 C   0  0  0  0  0  0
    6.5688  -16.0119    2.5893 C   0  0  0  0  0  0
    7.5301  -14.8171    2.8255 C   0  0  0  0  0  0
    9.0573  -15.0692    2.5200 C   0  0  0  0  0  0
    9.9486  -13.8236    2.4391 C   0  0  0  0  0  0
   11.4814  -14.0235    2.2695 C   0  0  0  0  0  0
   12.3568  -12.9134    1.6161 C   0  0  0  0  0  0
   12.6856  -11.7093    2.4876 C   0  0  0  0  0  0
   13.5811  -13.4882    1.0271 N   0  0  0  0  0  0
   11.9873  -14.1526    3.6227 O   0  0  0  0  0  0
    9.5746  -15.9332    3.5376 O   0  0  0  0  0  0
    2.1130  -14.4690    2.2616 O   0  0  0  0  0  0
    1.3657   -8.9105   -0.3885 O   0  0  0  0  0  0
    1.4133   -9.7104   -1.4854 C   0  0  0  0  0  0
    1.8833  -10.8309   -1.5389 O   0  0  0  0  0  0
    0.6927   -9.0193   -2.6100 C   0  0  0  0  0  0
   -0.7742   -8.7107   -2.2699 C   0  0  0  0  0  0
   -1.4589   -7.8525   -3.3413 C   0  0  0  0  0  0
   -2.2058   -6.6961   -2.7182 C   0  0  0  0  0  0
   -2.1450   -5.5451   -3.1366 O   0  0  0  0  0  0
   -2.9482   -7.0486   -1.6583 O   0  0  0  0  0  0
   -1.4765  -10.0710   -2.1585 C   0  0  0  0  0  0
   -1.5945  -10.6763   -1.1040 O   0  0  0  0  0  0
   -1.9091  -10.5672   -3.3258 O   0  0  0  0  0  0
    3.2399   -6.7013    1.1588 O   0  0  0  0  0  0
    4.5643   -7.0086    0.8952 C   0  0  0  0  0  0
    5.3438   -7.4857    1.7095 O   0  0  0  0  0  0
    4.9623   -6.6842   -0.5507 C   0  0  0  0  0  0
    4.1212   -5.5726   -1.2516 C   0  0  0  0  0  0
    4.2589   -4.1283   -0.7365 C   0  0  0  0  0  0
    2.9895   -3.5960   -0.1365 C   0  0  0  0  0  0
    1.9420   -3.4029   -0.7382 O   0  0  0  0  0  0
    3.1042   -3.3577    1.1789 O   0  0  0  0  0  0
    4.2717   -5.5256   -2.7772 C   0  0  0  0  0  0
    4.5550   -4.5102   -3.3818 O   0  0  0  0  0  0
    4.1743   -6.7157   -3.4060 O   0  0  0  0  0  0
   14.0250  -12.7902    0.4320 H   0  0  0  0  0  0
   13.3145  -14.2443    0.3926 H   0  0  0  0  0  0
   11.6576  -13.3542    4.0866 H   0  0  0  0  0  0
    8.9913  -16.7119    3.6008 H   0  0  0  0  0  0
    1.8219  -13.6653    2.7240 H   0  0  0  0  0  0
   -3.3938   -6.3115   -1.1982 H   0  0  0  0  0  0
   -1.6950  -10.0083   -4.1136 H   0  0  0  0  0  0
    4.0599   -3.2347    1.3603 H   0  0  0  0  0  0
    3.8734   -6.6731   -4.3408 H   0  0  0  0  0  0
  1  2  1  0  0  0
  2  3  1  0  0  0
  3  4  1  0  0  0
  4  5  1  0  0  0
  5  6  1  0  0  0
  5  7  1  0  0  0
  7  8  1  0  0  0
  7 39  1  0  0  0
  8  9  1  0  0  0
  8 27  1  0  0  0
  9 10  1  0  0  0
 10 11  1  0  0  0
 10 12  1  0  0  0
 12 13  1  0  0  0
 13 14  1  0  0  0
 13 26  1  0  0  0
 14 15  1  0  0  0
 15 16  1  0  0  0
 16 17  1  0  0  0
 17 18  1  0  0  0
 18 19  1  0  0  0
 18 25  1  0  0  0
 19 20  1  0  0  0
 20 21  1  0  0  0
 20 24  1  0  0  0
 21 22  1  0  0  0
 21 23  1  0  0  0
 23 51  1  0  0  0
 23 52  1  0  0  0
 24 53  1  0  0  0
 25 54  1  0  0  0
 26 55  1  0  0  0
 27 28  1  0  0  0
 28 29  2  0  0  0
 28 30  1  0  0  0
 30 31  1  0  0  0
 31 32  1  0  0  0
 31 36  1  0  0  0
 32 33  1  0  0  0
 33 34  2  0  0  0
 33 35  1  0  0  0
 35 56  1  0  0  0
 36 37  2  0  0  0
 36 38  1  0  0  0
 38 57  1  0  0  0
 39 40  1  0  0  0
 40 41  2  0  0  0
 40 42  1  0  0  0
 42 43  1  0  0  0
 43 44  1  0  0  0
 43 48  1  0  0  0
 44 45  1  0  0  0
 45 46  2  0  0  0
 45 47  1  0  0  0
 47 58  1  0  0  0
 48 49  2  0  0  0
 48 50  1  0  0  0
 50 59  1  0  0  0
M  END
>  <AUTHOR>
    GENERATED BY OPEN BABEL 2.4.1

>  <CHROM.1>
-156.94834081,63.31463285,158.52625718,140.51759538,-87.14241282,177.98886111
-99.15407469,167.06326391,40.23031331,75.96714060,123.10051775,43.39167686
18.83215045,-124.85777511,91.21515481,-169.83489740,166.36398454,174.52396292
51.68483112,154.89573822,76.70659021,-53.90613572,167.34075886,30.59358112
-58.94074959,172.78531779,-132.16873673,92.39394445,134.21119977,175.99712233
1.89382122,-61.07464180,25.27475972,68.01595131,-115.14164759,-127.73023435
-64.58164446,22.90211809,153.98305495,3.66288835,-9.62928886,0.54187121,2.42750221
-0.16693542,-0.27864504

>  <COMPND>
    UNNAMED

>  <MASTER>
        0    0    0    0    0    0    0    0  109    0  109    0

>  <Name>
FB1.pdb

>  <RI>
0

>  <Rbt.Current_Directory>
/home/fc/tossine/FB1_39/p3/1_clust05

>  <Rbt.Executable>
rbdock/0.1.0

>  <Rbt.Library>
librxdock.so/0.1.0

>  <Rbt.Parameter_File>
/cluster/rxdock/data/scripts/dock.prm

>  <Rbt.Receptor>
rx_2.prm

>  <SCORE>
47.7388

>  <SCORE.INTER>
11.2511

>  <SCORE.INTER.CONST>
1

>  <SCORE.INTER.POLAR>
-1.80904

>  <SCORE.INTER.REPUL>
0.329214

>  <SCORE.INTER.ROT>
32

>  <SCORE.INTER.VDW>
-21.6442

>  <SCORE.INTER.norm>
0.225022

>  <SCORE.INTRA>
35.3408

>  <SCORE.INTRA.DIHEDRAL>
50.0834

>  <SCORE.INTRA.DIHEDRAL.0>
47.3121

>  <SCORE.INTRA.POLAR>
1.47808

>  <SCORE.INTRA.POLAR.0>
-1.47808

>  <SCORE.INTRA.REPUL>
0

>  <SCORE.INTRA.REPUL.0>
0

>  <SCORE.INTRA.VDW>
5.2736

>  <SCORE.INTRA.VDW.0>
-2.78316

>  <SCORE.INTRA.norm>
0.706816

>  <SCORE.RESTR>
1.14693

>  <SCORE.RESTR.CAVITY>
1.14693

>  <SCORE.RESTR.norm>
0.0229386

>  <SCORE.SYSTEM>
0

>  <SCORE.SYSTEM.CONST>
0

>  <SCORE.SYSTEM.DIHEDRAL>
0

>  <SCORE.SYSTEM.norm>
0

>  <SCORE.heavy>
50

>  <SCORE.norm>
0.954776

$$$$
