FB1.pdb
  RxDock  10072008153D
librxdock.so/0.1.0
 59 58  0  0  0  0  0  0  0  0999 V2000
   -1.8467   -7.7489   -2.3521 C   0  0  0  0  0  0
   -1.7638   -7.6997   -3.8760 C   0  0  0  0  0  0
   -1.0444   -8.9328   -4.4471 C   0  0  0  0  0  0
    0.3763   -9.1430   -3.8665 C   0  0  0  0  0  0
    0.5635  -10.4607   -3.0365 C   0  0  0  0  0  0
    1.5433  -11.3809   -3.8006 C   0  0  0  0  0  0
    1.0630  -10.2083   -1.5517 C   0  0  0  0  0  0
    1.3054  -11.5014   -0.6378 C   0  0  0  0  0  0
    2.4582  -12.5743   -0.8577 C   0  0  0  0  0  0
    2.2187  -14.0225   -0.1050 C   0  0  0  0  0  0
    1.6320  -15.0044   -1.1178 C   0  0  0  0  0  0
    3.4981  -14.6730    0.5914 C   0  0  0  0  0  0
    4.2350  -14.0558    1.8932 C   0  0  0  0  0  0
    4.8138  -14.9571    3.0372 C   0  0  0  0  0  0
    6.2244  -15.6671    2.8017 C   0  0  0  0  0  0
    6.3984  -17.1372    2.2511 C   0  0  0  0  0  0
    7.8140  -17.7698    2.1945 C   0  0  0  0  0  0
    8.4962  -18.0976    3.5788 C   0  0  0  0  0  0
    9.3703  -16.9922    4.1842 C   0  0  0  0  0  0
   10.7297  -17.3941    4.8235 C   0  0  0  0  0  0
   12.0242  -16.5906    4.5011 C   0  0  0  0  0  0
   13.1011  -16.5807    5.5771 C   0  0  0  0  0  0
   12.5842  -16.9971    3.1983 N   0  0  0  0  0  0
   10.5289  -17.2260    6.2502 O   0  0  0  0  0  0
    7.4627  -18.4237    4.5143 O   0  0  0  0  0  0
    5.3665  -13.3384    1.3719 O   0  0  0  0  0  0
    1.5244  -11.0096    0.7123 O   0  0  0  0  0  0
    0.4307  -10.5933    1.4021 C   0  0  0  0  0  0
   -0.6384  -11.1692    1.4714 O   0  0  0  0  0  0
    0.7912   -9.3432    2.1563 C   0  0  0  0  0  0
    1.6702   -9.6277    3.3847 C   0  0  0  0  0  0
    1.5817   -8.5191    4.4413 C   0  0  0  0  0  0
    2.4969   -7.3662    4.0999 C   0  0  0  0  0  0
    2.5412   -6.8402    2.9930 O   0  0  0  0  0  0
    3.2605   -6.9676    5.1279 O   0  0  0  0  0  0
    1.1618  -10.9526    3.9695 C   0  0  0  0  0  0
    0.0075  -11.1225    4.3316 O   0  0  0  0  0  0
    2.1030  -11.8979    4.0976 O   0  0  0  0  0  0
    2.2248   -9.2865   -1.5271 O   0  0  0  0  0  0
    2.0602   -8.0053   -2.0267 C   0  0  0  0  0  0
    1.0385   -7.5912   -2.5586 O   0  0  0  0  0  0
    3.3142   -7.1408   -1.8411 C   0  0  0  0  0  0
    3.1501   -5.6273   -2.1830 C   0  0  0  0  0  0
    3.5742   -4.5958   -1.1215 C   0  0  0  0  0  0
    4.5700   -5.1410   -0.1388 C   0  0  0  0  0  0
    5.6020   -5.7332   -0.4229 O   0  0  0  0  0  0
    4.2229   -4.8946    1.1336 O   0  0  0  0  0  0
    3.7895   -5.2004   -3.5101 C   0  0  0  0  0  0
    3.9402   -4.0368   -3.8263 O   0  0  0  0  0  0
    4.2771   -6.2050   -4.2679 O   0  0  0  0  0  0
   12.7226  -18.0067    3.1945 H   0  0  0  0  0  0
   13.5232  -16.6022    3.1088 H   0  0  0  0  0  0
   11.2511  -17.7446    6.6637 H   0  0  0  0  0  0
    7.8592  -18.9458    5.2360 H   0  0  0  0  0  0
    5.8324  -13.9223    0.7503 H   0  0  0  0  0  0
    3.2605   -7.5626    5.9021 H   0  0  0  0  0  0
    1.7564  -12.8245    4.0966 H   0  0  0  0  0  0
    4.9468   -5.2436    1.6953 H   0  0  0  0  0  0
    4.5639   -7.0038   -3.7719 H   0  0  0  0  0  0
  1  2  1  0  0  0
  2  3  1  0  0  0
  3  4  1  0  0  0
  4  5  1  0  0  0
  5  6  1  0  0  0
  5  7  1  0  0  0
  7  8  1  0  0  0
  7 39  1  0  0  0
  8  9  1  0  0  0
  8 27  1  0  0  0
  9 10  1  0  0  0
 10 11  1  0  0  0
 10 12  1  0  0  0
 12 13  1  0  0  0
 13 14  1  0  0  0
 13 26  1  0  0  0
 14 15  1  0  0  0
 15 16  1  0  0  0
 16 17  1  0  0  0
 17 18  1  0  0  0
 18 19  1  0  0  0
 18 25  1  0  0  0
 19 20  1  0  0  0
 20 21  1  0  0  0
 20 24  1  0  0  0
 21 22  1  0  0  0
 21 23  1  0  0  0
 23 51  1  0  0  0
 23 52  1  0  0  0
 24 53  1  0  0  0
 25 54  1  0  0  0
 26 55  1  0  0  0
 27 28  1  0  0  0
 28 29  2  0  0  0
 28 30  1  0  0  0
 30 31  1  0  0  0
 31 32  1  0  0  0
 31 36  1  0  0  0
 32 33  1  0  0  0
 33 34  2  0  0  0
 33 35  1  0  0  0
 35 56  1  0  0  0
 36 37  2  0  0  0
 36 38  1  0  0  0
 38 57  1  0  0  0
 39 40  1  0  0  0
 40 41  2  0  0  0
 40 42  1  0  0  0
 42 43  1  0  0  0
 43 44  1  0  0  0
 43 48  1  0  0  0
 44 45  1  0  0  0
 45 46  2  0  0  0
 45 47  1  0  0  0
 47 58  1  0  0  0
 48 49  2  0  0  0
 48 50  1  0  0  0
 50 59  1  0  0  0
M  END
>  <AUTHOR>
    GENERATED BY OPEN BABEL 2.4.1

>  <CHROM.1>
-56.01435945,116.02449816,113.57480194,-178.99656074,68.33035947,60.84561706
-161.65619453,76.02951136,97.51327457,67.77818045,141.72712488,79.12557874
-48.83008382,-94.30743142,-174.05098511,68.50635032,-90.97004773,-137.54543548
158.40554328,133.59822266,152.02305361,161.94764020,-54.36177908,44.97006903
-74.57569586,-157.02232381,-82.40572463,-57.91862194,48.64516081,11.08560123
-155.30103289,-4.12570141,-171.38058675,127.31098857,22.84658468,-168.03548780
50.06869755,-177.22790435,-27.49469845,3.80393270,-11.07761914,0.85963561
2.24065179,-0.45195049,-0.20913232

>  <COMPND>
    UNNAMED

>  <MASTER>
        0    0    0    0    0    0    0    0  109    0  109    0

>  <Name>
FB1.pdb

>  <RI>
0

>  <Rbt.Current_Directory>
/home/fc/tossine/FB1_39/p3/1_clust05

>  <Rbt.Executable>
rbdock/0.1.0

>  <Rbt.Library>
librxdock.so/0.1.0

>  <Rbt.Parameter_File>
/cluster/rxdock/data/scripts/dock.prm

>  <Rbt.Receptor>
rx_1.prm

>  <SCORE>
62.5747

>  <SCORE.INTER>
10.6403

>  <SCORE.INTER.CONST>
1

>  <SCORE.INTER.POLAR>
-2.38613

>  <SCORE.INTER.REPUL>
0.553956

>  <SCORE.INTER.ROT>
32

>  <SCORE.INTER.VDW>
-21.4167

>  <SCORE.INTER.norm>
0.212805

>  <SCORE.INTRA>
49.7069

>  <SCORE.INTRA.DIHEDRAL>
51.4958

>  <SCORE.INTRA.DIHEDRAL.0>
47.3121

>  <SCORE.INTRA.POLAR>
1.47808

>  <SCORE.INTRA.POLAR.0>
-1.47808

>  <SCORE.INTRA.REPUL>
0

>  <SCORE.INTRA.REPUL.0>
0

>  <SCORE.INTRA.VDW>
18.9335

>  <SCORE.INTRA.VDW.0>
-2.78316

>  <SCORE.INTRA.norm>
0.994137

>  <SCORE.RESTR>
2.22759

>  <SCORE.RESTR.CAVITY>
2.22759

>  <SCORE.RESTR.norm>
0.0445518

>  <SCORE.SYSTEM>
0

>  <SCORE.SYSTEM.CONST>
0

>  <SCORE.SYSTEM.DIHEDRAL>
0

>  <SCORE.SYSTEM.norm>
0

>  <SCORE.heavy>
50

>  <SCORE.norm>
1.25149

$$$$
