FB1.pdb
  RxDock  10072009153D
librxdock.so/0.1.0
 59 58  0  0  0  0  0  0  0  0999 V2000
   -2.0395   -7.1849   -3.5392 C   0  0  0  0  0  0
   -1.6217   -7.8520   -4.8475 C   0  0  0  0  0  0
   -1.1948   -9.3132   -4.6306 C   0  0  0  0  0  0
   -0.0301   -9.4730   -3.6219 C   0  0  0  0  0  0
   -0.4447   -9.3781   -2.1121 C   0  0  0  0  0  0
   -1.1908  -10.6775   -1.7308 C   0  0  0  0  0  0
    0.7780   -9.1181   -1.1347 C   0  0  0  0  0  0
    0.4929   -9.2524    0.4359 C   0  0  0  0  0  0
    0.3752  -10.6247    1.2304 C   0  0  0  0  0  0
   -0.0655  -10.4807    2.8136 C   0  0  0  0  0  0
   -0.3948  -11.8713    3.3538 C   0  0  0  0  0  0
    0.9899   -9.7693    3.7753 C   0  0  0  0  0  0
    0.8013   -9.6174    5.3753 C   0  0  0  0  0  0
    1.7807   -8.7725    6.2602 C   0  0  0  0  0  0
    1.7640   -7.1837    6.1030 C   0  0  0  0  0  0
    1.5172   -6.1755    7.2934 C   0  0  0  0  0  0
    2.0231   -6.5333    8.7159 C   0  0  0  0  0  0
    1.8287   -5.4344    9.8311 C   0  0  0  0  0  0
    1.5456   -5.9476   11.2485 C   0  0  0  0  0  0
    2.2021   -7.2853   11.6932 C   0  0  0  0  0  0
    1.7386   -8.6379   11.0760 C   0  0  0  0  0  0
    1.8186   -9.8587   11.9819 C   0  0  0  0  0  0
    0.3950   -8.5106   10.4801 N   0  0  0  0  0  0
    3.5953   -7.1560   11.3108 O   0  0  0  0  0  0
    3.0108   -4.6276    9.8672 O   0  0  0  0  0  0
   -0.4840   -8.9944    5.5385 O   0  0  0  0  0  0
    1.5674   -8.5394    1.1064 O   0  0  0  0  0  0
    1.4361   -7.1923    1.2214 C   0  0  0  0  0  0
    0.3905   -6.5744    1.2881 O   0  0  0  0  0  0
    2.8075   -6.5902    1.3560 C   0  0  0  0  0  0
    3.1160   -5.5707    0.2478 C   0  0  0  0  0  0
    4.5737   -5.0937    0.2760 C   0  0  0  0  0  0
    4.8273   -4.0526   -0.7895 C   0  0  0  0  0  0
    4.9599   -2.8570   -0.5517 O   0  0  0  0  0  0
    4.8961   -4.5618   -2.0284 O   0  0  0  0  0  0
    2.8234   -6.2871   -1.0778 C   0  0  0  0  0  0
    1.8266   -6.0671   -1.7489 O   0  0  0  0  0  0
    3.7296   -7.2143   -1.4172 O   0  0  0  0  0  0
    1.9704   -9.8963   -1.5502 O   0  0  0  0  0  0
    1.9591  -11.2687   -1.3647 C   0  0  0  0  0  0
    1.1163  -12.0269   -1.8265 O   0  0  0  0  0  0
    3.1347  -11.7513   -0.5048 C   0  0  0  0  0  0
    2.9375  -13.1292    0.2002 C   0  0  0  0  0  0
    4.1928  -13.9499    0.5481 C   0  0  0  0  0  0
    3.8935  -15.3984    0.8065 C   0  0  0  0  0  0
    2.8198  -15.8494    1.1812 O   0  0  0  0  0  0
    4.9476  -16.1918    0.5618 O   0  0  0  0  0  0
    2.0639  -13.0817    1.4599 C   0  0  0  0  0  0
    1.0317  -13.7131    1.5718 O   0  0  0  0  0  0
    2.5703  -12.3714    2.4897 O   0  0  0  0  0  0
   -0.2711   -8.2580   11.2089 H   0  0  0  0  0  0
    0.0932   -9.4319   10.1552 H   0  0  0  0  0  0
    3.9325   -6.4132   11.8549 H   0  0  0  0  0  0
    3.0307   -4.0809    9.0602 H   0  0  0  0  0  0
   -0.6993   -8.9929    6.4862 H   0  0  0  0  0  0
    4.8363   -5.5349   -2.0828 H   0  0  0  0  0  0
    3.4490   -7.8113   -2.1545 H   0  0  0  0  0  0
    5.6915  -15.6029    0.3144 H   0  0  0  0  0  0
    2.1285  -12.5150    3.3559 H   0  0  0  0  0  0
  1  2  1  0  0  0
  2  3  1  0  0  0
  3  4  1  0  0  0
  4  5  1  0  0  0
  5  6  1  0  0  0
  5  7  1  0  0  0
  7  8  1  0  0  0
  7 39  1  0  0  0
  8  9  1  0  0  0
  8 27  1  0  0  0
  9 10  1  0  0  0
 10 11  1  0  0  0
 10 12  1  0  0  0
 12 13  1  0  0  0
 13 14  1  0  0  0
 13 26  1  0  0  0
 14 15  1  0  0  0
 15 16  1  0  0  0
 16 17  1  0  0  0
 17 18  1  0  0  0
 18 19  1  0  0  0
 18 25  1  0  0  0
 19 20  1  0  0  0
 20 21  1  0  0  0
 20 24  1  0  0  0
 21 22  1  0  0  0
 21 23  1  0  0  0
 23 51  1  0  0  0
 23 52  1  0  0  0
 24 53  1  0  0  0
 25 54  1  0  0  0
 26 55  1  0  0  0
 27 28  1  0  0  0
 28 29  2  0  0  0
 28 30  1  0  0  0
 30 31  1  0  0  0
 31 32  1  0  0  0
 31 36  1  0  0  0
 32 33  1  0  0  0
 33 34  2  0  0  0
 33 35  1  0  0  0
 35 56  1  0  0  0
 36 37  2  0  0  0
 36 38  1  0  0  0
 38 57  1  0  0  0
 39 40  1  0  0  0
 40 41  2  0  0  0
 40 42  1  0  0  0
 42 43  1  0  0  0
 43 44  1  0  0  0
 43 48  1  0  0  0
 44 45  1  0  0  0
 45 46  2  0  0  0
 45 47  1  0  0  0
 47 58  1  0  0  0
 48 49  2  0  0  0
 48 50  1  0  0  0
 50 59  1  0  0  0
M  END
>  <AUTHOR>
    GENERATED BY OPEN BABEL 2.4.1

>  <CHROM.1>
-57.73635671,78.67542115,73.26119806,-169.95200839,78.02221188,-71.67232668
-174.42258270,82.61797148,169.19617976,-175.64589567,-172.93571795,69.76646992
172.25953266,123.83114672,33.41501423,175.89316315,146.16644453,33.38674987
71.06443757,-69.81604234,-148.27974284,63.92327883,-61.52591133,28.78801558
121.35581134,-172.51935810,-177.70478066,104.50415852,105.68151887,-3.97409461
167.18106419,57.03730798,157.82367182,154.04321166,-161.65938070,120.01759566
-24.99818224,3.17646860,-165.87625827,1.79121732,-8.97975624,2.39449287,-2.26570452
1.50353452,2.06310326

>  <COMPND>
    UNNAMED

>  <MASTER>
        0    0    0    0    0    0    0    0  109    0  109    0

>  <Name>
FB1.pdb

>  <RI>
0

>  <Rbt.Current_Directory>
/home/fc/tossine/FB1_39/p3/1_clust05

>  <Rbt.Executable>
rbdock/0.1.0

>  <Rbt.Library>
librxdock.so/0.1.0

>  <Rbt.Parameter_File>
/cluster/rxdock/data/scripts/dock.prm

>  <Rbt.Receptor>
rx_3.prm

>  <SCORE>
42.6368

>  <SCORE.INTER>
23.2198

>  <SCORE.INTER.CONST>
1

>  <SCORE.INTER.POLAR>
-0.990718

>  <SCORE.INTER.REPUL>
1.77976

>  <SCORE.INTER.ROT>
32

>  <SCORE.INTER.VDW>
-19.7106

>  <SCORE.INTER.norm>
0.464396

>  <SCORE.INTRA>
13.2114

>  <SCORE.INTRA.DIHEDRAL>
16.9936

>  <SCORE.INTRA.DIHEDRAL.0>
47.3121

>  <SCORE.INTRA.POLAR>
1.03416

>  <SCORE.INTRA.POLAR.0>
-1.47808

>  <SCORE.INTRA.REPUL>
0

>  <SCORE.INTRA.REPUL.0>
0

>  <SCORE.INTRA.VDW>
1.19849

>  <SCORE.INTRA.VDW.0>
-2.78316

>  <SCORE.INTRA.norm>
0.264228

>  <SCORE.RESTR>
6.20555

>  <SCORE.RESTR.CAVITY>
6.20555

>  <SCORE.RESTR.norm>
0.124111

>  <SCORE.SYSTEM>
0

>  <SCORE.SYSTEM.CONST>
0

>  <SCORE.SYSTEM.DIHEDRAL>
0

>  <SCORE.SYSTEM.norm>
0

>  <SCORE.heavy>
50

>  <SCORE.norm>
0.852735

$$$$
