FB1.pdb
  RxDock  10072008153D
librxdock.so/0.1.0
 59 58  0  0  0  0  0  0  0  0999 V2000
    4.2397   -4.7543   -0.3124 C   0  0  0  0  0  0
    4.6445   -5.8488   -1.2970 C   0  0  0  0  0  0
    3.8419   -7.1411   -1.0734 C   0  0  0  0  0  0
    4.4980   -8.1072   -0.0556 C   0  0  0  0  0  0
    3.8255   -9.5209    0.0430 C   0  0  0  0  0  0
    4.3541  -10.2224    1.3154 C   0  0  0  0  0  0
    2.2395   -9.4692    0.0408 C   0  0  0  0  0  0
    1.4686  -10.8536   -0.1948 C   0  0  0  0  0  0
    1.1236  -11.9133    0.9392 C   0  0  0  0  0  0
    2.2511  -13.0978    1.1560 C   0  0  0  0  0  0
    3.2662  -13.0156    0.0172 C   0  0  0  0  0  0
    3.0162  -13.0926    2.5559 C   0  0  0  0  0  0
    2.2973  -13.3422    3.9840 C   0  0  0  0  0  0
    3.1058  -13.4719    5.3203 C   0  0  0  0  0  0
    4.6033  -14.0211    5.2491 C   0  0  0  0  0  0
    5.0396  -15.3112    4.4492 C   0  0  0  0  0  0
    5.4052  -15.1916    2.9460 C   0  0  0  0  0  0
    6.4794  -16.2090    2.3981 C   0  0  0  0  0  0
    7.7931  -16.2991    3.1846 C   0  0  0  0  0  0
    8.9543  -17.1429    2.5863 C   0  0  0  0  0  0
   10.2767  -17.3465    3.3832 C   0  0  0  0  0  0
   11.4896  -16.5677    2.8935 C   0  0  0  0  0  0
   10.0591  -17.1310    4.8264 N   0  0  0  0  0  0
    8.3998  -18.4743    2.4324 O   0  0  0  0  0  0
    5.8798  -17.5086    2.3638 O   0  0  0  0  0  0
    1.4426  -12.2017    4.1718 O   0  0  0  0  0  0
    0.1788  -10.5079   -0.7687 O   0  0  0  0  0  0
    0.0079  -10.7521   -2.0939 C   0  0  0  0  0  0
   -0.3125  -11.8134   -2.5944 O   0  0  0  0  0  0
    0.1819   -9.4595   -2.8425 C   0  0  0  0  0  0
   -1.1089   -8.6265   -2.8902 C   0  0  0  0  0  0
   -0.9150   -7.2082   -2.3386 C   0  0  0  0  0  0
   -2.2249   -6.4561   -2.2959 C   0  0  0  0  0  0
   -3.1052   -6.6733   -1.4704 O   0  0  0  0  0  0
   -2.3353   -5.5208   -3.2509 O   0  0  0  0  0  0
   -1.5161   -8.5639   -4.3688 C   0  0  0  0  0  0
   -1.8733   -7.5334   -4.9191 O   0  0  0  0  0  0
   -1.4954   -9.7466   -4.9987 O   0  0  0  0  0  0
    1.7258   -8.7439    1.2282 O   0  0  0  0  0  0
    0.9470   -7.6167    1.0260 C   0  0  0  0  0  0
    0.7105   -7.1208   -0.0679 O   0  0  0  0  0  0
    0.3997   -7.0419    2.3391 C   0  0  0  0  0  0
    1.3895   -6.1528    3.1541 C   0  0  0  0  0  0
    0.8608   -4.8298    3.7376 C   0  0  0  0  0  0
   -0.0605   -4.1024    2.8014 C   0  0  0  0  0  0
    0.2764   -3.5119    1.7843 O   0  0  0  0  0  0
   -1.3442   -4.1755    3.1848 O   0  0  0  0  0  0
    2.1222   -6.8857    4.2846 C   0  0  0  0  0  0
    1.9470   -6.6300    5.4596 O   0  0  0  0  0  0
    2.9030   -7.9159    3.8968 O   0  0  0  0  0  0
    9.9756  -16.1313    5.0059 H   0  0  0  0  0  0
   10.9007  -17.4197    5.3303 H   0  0  0  0  0  0
    8.3411  -18.8242    3.3465 H   0  0  0  0  0  0
    5.6876  -17.7792    3.2804 H   0  0  0  0  0  0
    0.8689  -12.3785    4.9361 H   0  0  0  0  0  0
   -1.7682   -5.6561   -4.0341 H   0  0  0  0  0  0
   -1.7594   -9.7084   -5.9514 H   0  0  0  0  0  0
   -1.8637   -3.6671    2.5268 H   0  0  0  0  0  0
    2.8634   -8.1353    2.9394 H   0  0  0  0  0  0
  1  2  1  0  0  0
  2  3  1  0  0  0
  3  4  1  0  0  0
  4  5  1  0  0  0
  5  6  1  0  0  0
  5  7  1  0  0  0
  7  8  1  0  0  0
  7 39  1  0  0  0
  8  9  1  0  0  0
  8 27  1  0  0  0
  9 10  1  0  0  0
 10 11  1  0  0  0
 10 12  1  0  0  0
 12 13  1  0  0  0
 13 14  1  0  0  0
 13 26  1  0  0  0
 14 15  1  0  0  0
 15 16  1  0  0  0
 16 17  1  0  0  0
 17 18  1  0  0  0
 18 19  1  0  0  0
 18 25  1  0  0  0
 19 20  1  0  0  0
 20 21  1  0  0  0
 20 24  1  0  0  0
 21 22  1  0  0  0
 21 23  1  0  0  0
 23 51  1  0  0  0
 23 52  1  0  0  0
 24 53  1  0  0  0
 25 54  1  0  0  0
 26 55  1  0  0  0
 27 28  1  0  0  0
 28 29  2  0  0  0
 28 30  1  0  0  0
 30 31  1  0  0  0
 31 32  1  0  0  0
 31 36  1  0  0  0
 32 33  1  0  0  0
 33 34  2  0  0  0
 33 35  1  0  0  0
 35 56  1  0  0  0
 36 37  2  0  0  0
 36 38  1  0  0  0
 38 57  1  0  0  0
 39 40  1  0  0  0
 40 41  2  0  0  0
 40 42  1  0  0  0
 42 43  1  0  0  0
 43 44  1  0  0  0
 43 48  1  0  0  0
 44 45  1  0  0  0
 45 46  2  0  0  0
 45 47  1  0  0  0
 47 58  1  0  0  0
 48 49  2  0  0  0
 48 50  1  0  0  0
 50 59  1  0  0  0
M  END
>  <AUTHOR>
    GENERATED BY OPEN BABEL 2.4.1

>  <CHROM.1>
-89.19333637,-171.42842229,-166.20752424,166.57905045,84.76697473,120.55398774
-92.18667529,105.77187139,-9.78226890,64.14671476,173.69106660,-27.83072891
169.91970443,-47.82871645,86.84176904,149.45836697,-51.64311244,-172.10814821
-65.26646353,-175.98930768,-106.18314911,-73.01468515,-75.26746036,83.61206061
-84.56041982,124.49937033,-175.38483682,-134.70720887,74.16868406,22.73883308
179.87777908,-4.51586311,80.71714714,135.25278112,-40.01078545,-113.75732556
-72.66369690,179.26163196,-4.78379470,2.53786927,-10.30280179,1.02720310
-2.80711788,0.88126551,-2.40174855

>  <COMPND>
    UNNAMED

>  <MASTER>
        0    0    0    0    0    0    0    0  109    0  109    0

>  <Name>
FB1.pdb

>  <RI>
0

>  <Rbt.Current_Directory>
/home/fc/tossine/FB1_39/p3/1_clust05

>  <Rbt.Executable>
rbdock/0.1.0

>  <Rbt.Library>
librxdock.so/0.1.0

>  <Rbt.Parameter_File>
/cluster/rxdock/data/scripts/dock.prm

>  <Rbt.Receptor>
rx_1.prm

>  <SCORE>
39.8741

>  <SCORE.INTER>
11.2648

>  <SCORE.INTER.CONST>
1

>  <SCORE.INTER.POLAR>
-1.41281

>  <SCORE.INTER.REPUL>
0.365856

>  <SCORE.INTER.ROT>
32

>  <SCORE.INTER.VDW>
-23.1609

>  <SCORE.INTER.norm>
0.225296

>  <SCORE.INTRA>
22.8803

>  <SCORE.INTRA.DIHEDRAL>
46.5151

>  <SCORE.INTRA.DIHEDRAL.0>
47.3121

>  <SCORE.INTRA.POLAR>
0.16741

>  <SCORE.INTRA.POLAR.0>
-1.47808

>  <SCORE.INTRA.REPUL>
0

>  <SCORE.INTRA.REPUL.0>
0

>  <SCORE.INTRA.VDW>
-0.946421

>  <SCORE.INTRA.VDW.0>
-2.78316

>  <SCORE.INTRA.norm>
0.457606

>  <SCORE.RESTR>
5.72902

>  <SCORE.RESTR.CAVITY>
5.72902

>  <SCORE.RESTR.norm>
0.11458

>  <SCORE.SYSTEM>
0

>  <SCORE.SYSTEM.CONST>
0

>  <SCORE.SYSTEM.DIHEDRAL>
0

>  <SCORE.SYSTEM.norm>
0

>  <SCORE.heavy>
50

>  <SCORE.norm>
0.797482

$$$$
