FB1.pdb
  RxDock  10072008113D
librxdock.so/0.1.0
 59 58  0  0  0  0  0  0  0  0999 V2000
    2.0035   -6.9601    4.9740 C   0  0  0  0  0  0
    1.9607   -8.3770    4.4065 C   0  0  0  0  0  0
    3.0195   -8.5837    3.3109 C   0  0  0  0  0  0
    2.8234   -9.8896    2.5010 C   0  0  0  0  0  0
    3.9857  -10.2310    1.5046 C   0  0  0  0  0  0
    4.5614  -11.6145    1.8859 C   0  0  0  0  0  0
    3.5432  -10.2009   -0.0189 C   0  0  0  0  0  0
    2.9355  -11.5535   -0.6250 C   0  0  0  0  0  0
    1.7669  -12.4072    0.0335 C   0  0  0  0  0  0
    2.2491  -13.8030    0.7687 C   0  0  0  0  0  0
    1.5596  -13.8983    2.1287 C   0  0  0  0  0  0
    2.0046  -15.1499   -0.0505 C   0  0  0  0  0  0
    3.1427  -16.2688   -0.3181 C   0  0  0  0  0  0
    4.0639  -16.8199    0.8238 C   0  0  0  0  0  0
    4.9893  -18.0820    0.5075 C   0  0  0  0  0  0
    5.4528  -18.5029   -0.9425 C   0  0  0  0  0  0
    6.9375  -18.3189   -1.3542 C   0  0  0  0  0  0
    8.0028  -19.1557   -0.5453 C   0  0  0  0  0  0
    8.0224  -18.9435    0.9736 C   0  0  0  0  0  0
    9.3882  -19.0278    1.7123 C   0  0  0  0  0  0
   10.6066  -18.1915    1.2208 C   0  0  0  0  0  0
   11.3450  -17.3838    2.2790 C   0  0  0  0  0  0
   11.5432  -19.0307    0.4494 N   0  0  0  0  0  0
    9.1132  -18.5402    3.0503 O   0  0  0  0  0  0
    7.7663  -20.5432   -0.8077 O   0  0  0  0  0  0
    2.4263  -17.4147   -0.8083 O   0  0  0  0  0  0
    2.4343  -11.2171   -1.9471 O   0  0  0  0  0  0
    1.3687  -10.3768   -2.0075 C   0  0  0  0  0  0
    0.3120  -10.5118   -1.4206 O   0  0  0  0  0  0
    1.7471   -9.1877   -2.8466 C   0  0  0  0  0  0
    0.5286   -8.3518   -3.2696 C   0  0  0  0  0  0
   -0.4081   -8.0407   -2.0951 C   0  0  0  0  0  0
   -1.8257   -7.8235   -2.5712 C   0  0  0  0  0  0
   -2.7920   -7.7624   -1.8188 O   0  0  0  0  0  0
   -1.9293   -7.7012   -3.9028 O   0  0  0  0  0  0
    1.0926   -7.0481   -3.8512 C   0  0  0  0  0  0
    0.4591   -6.0042   -3.8857 O   0  0  0  0  0  0
    2.3249   -7.1598   -4.3658 O   0  0  0  0  0  0
    2.6791   -9.0292   -0.3023 O   0  0  0  0  0  0
    3.2744   -7.7842   -0.4196 C   0  0  0  0  0  0
    4.4139   -7.5925   -0.8236 O   0  0  0  0  0  0
    2.3409   -6.6473    0.0166 C   0  0  0  0  0  0
    2.8236   -5.2043   -0.3287 C   0  0  0  0  0  0
    2.2429   -4.0332    0.4848 C   0  0  0  0  0  0
    0.7430   -3.9775    0.4442 C   0  0  0  0  0  0
    0.0753   -3.2516   -0.2796 O   0  0  0  0  0  0
    0.1740   -4.8448    1.2953 O   0  0  0  0  0  0
    4.3472   -5.0296   -0.3499 C   0  0  0  0  0  0
    5.0065   -4.8607    0.6568 O   0  0  0  0  0  0
    4.9311   -5.1825   -1.5570 O   0  0  0  0  0  0
   11.7132  -19.8967    0.9589 H   0  0  0  0  0  0
   12.4511  -18.5616    0.4167 H   0  0  0  0  0  0
    8.6078  -19.2636    3.4775 H   0  0  0  0  0  0
    8.4817  -21.0578   -0.3907 H   0  0  0  0  0  0
    1.7275  -17.6291   -0.1677 H   0  0  0  0  0  0
   -2.8419   -7.6793   -4.2494 H   0  0  0  0  0  0
    2.6571   -6.3434   -4.8153 H   0  0  0  0  0  0
    0.8973   -5.2179    1.8421 H   0  0  0  0  0  0
    5.8376   -4.8104   -1.6347 H   0  0  0  0  0  0
  1  2  1  0  0  0
  2  3  1  0  0  0
  3  4  1  0  0  0
  4  5  1  0  0  0
  5  6  1  0  0  0
  5  7  1  0  0  0
  7  8  1  0  0  0
  7 39  1  0  0  0
  8  9  1  0  0  0
  8 27  1  0  0  0
  9 10  1  0  0  0
 10 11  1  0  0  0
 10 12  1  0  0  0
 12 13  1  0  0  0
 13 14  1  0  0  0
 13 26  1  0  0  0
 14 15  1  0  0  0
 15 16  1  0  0  0
 16 17  1  0  0  0
 17 18  1  0  0  0
 18 19  1  0  0  0
 18 25  1  0  0  0
 19 20  1  0  0  0
 20 21  1  0  0  0
 20 24  1  0  0  0
 21 22  1  0  0  0
 21 23  1  0  0  0
 23 51  1  0  0  0
 23 52  1  0  0  0
 24 53  1  0  0  0
 25 54  1  0  0  0
 26 55  1  0  0  0
 27 28  1  0  0  0
 28 29  2  0  0  0
 28 30  1  0  0  0
 30 31  1  0  0  0
 31 32  1  0  0  0
 31 36  1  0  0  0
 32 33  1  0  0  0
 33 34  2  0  0  0
 33 35  1  0  0  0
 35 56  1  0  0  0
 36 37  2  0  0  0
 36 38  1  0  0  0
 38 57  1  0  0  0
 39 40  1  0  0  0
 40 41  2  0  0  0
 40 42  1  0  0  0
 42 43  1  0  0  0
 43 44  1  0  0  0
 43 48  1  0  0  0
 44 45  1  0  0  0
 45 46  2  0  0  0
 45 47  1  0  0  0
 47 58  1  0  0  0
 48 49  2  0  0  0
 48 50  1  0  0  0
 50 59  1  0  0  0
M  END
>  <AUTHOR>
    GENERATED BY OPEN BABEL 2.4.1

>  <CHROM.1>
-167.74553773,-172.29457852,121.18674421,-87.35452506,50.52130753,76.37069046
-104.93973359,-66.95496549,134.24604223,129.20516161,47.96601192,170.34544201
-53.88594050,23.07909582,109.16885136,63.15154120,-57.39196091,-146.11315512
173.77687311,51.78515293,130.53551560,73.26394281,-47.15119912,-52.86923243
165.77930937,48.24167619,-153.40991181,-155.60053473,168.52545040,172.19416816
174.63617280,30.02680655,-169.03743763,-158.38202751,-56.18097917,-81.49998591
-98.97671109,8.31061384,162.06713999,3.44126579,-11.15624016,-0.16968606
-2.18036103,0.59907857,-2.89654204

>  <COMPND>
    UNNAMED

>  <MASTER>
        0    0    0    0    0    0    0    0  109    0  109    0

>  <Name>
FB1.pdb

>  <RI>
0

>  <Rbt.Current_Directory>
/home/fc/tossine/FB1_39/p3/1_clust05

>  <Rbt.Executable>
rbdock/0.1.0

>  <Rbt.Library>
librxdock.so/0.1.0

>  <Rbt.Parameter_File>
/cluster/rxdock/data/scripts/dock.prm

>  <Rbt.Receptor>
rx_1.prm

>  <SCORE>
56.5862

>  <SCORE.INTER>
19.2357

>  <SCORE.INTER.CONST>
1

>  <SCORE.INTER.POLAR>
-1.15447

>  <SCORE.INTER.REPUL>
1.04811

>  <SCORE.INTER.ROT>
32

>  <SCORE.INTER.VDW>
-19.4797

>  <SCORE.INTER.norm>
0.384713

>  <SCORE.INTRA>
35.268

>  <SCORE.INTRA.DIHEDRAL>
45.7523

>  <SCORE.INTRA.DIHEDRAL.0>
47.3121

>  <SCORE.INTRA.POLAR>
1.47808

>  <SCORE.INTRA.POLAR.0>
-1.47808

>  <SCORE.INTRA.REPUL>
0

>  <SCORE.INTRA.REPUL.0>
0

>  <SCORE.INTRA.VDW>
7.3664

>  <SCORE.INTRA.VDW.0>
-2.78316

>  <SCORE.INTRA.norm>
0.70536

>  <SCORE.RESTR>
2.08252

>  <SCORE.RESTR.CAVITY>
2.08252

>  <SCORE.RESTR.norm>
0.0416503

>  <SCORE.SYSTEM>
0

>  <SCORE.SYSTEM.CONST>
0

>  <SCORE.SYSTEM.DIHEDRAL>
0

>  <SCORE.SYSTEM.norm>
0

>  <SCORE.heavy>
50

>  <SCORE.norm>
1.13172

$$$$
