FB1.pdb
  RxDock  10072009443D
librxdock.so/0.1.0
 59 58  0  0  0  0  0  0  0  0999 V2000
   -1.3270  -10.8759   -2.0174 C   0  0  0  0  0  0
   -0.6350   -9.7910   -2.8394 C   0  0  0  0  0  0
    0.6737   -9.3251   -2.1803 C   0  0  0  0  0  0
    1.7653  -10.4231   -2.1310 C   0  0  0  0  0  0
    1.6184  -11.4496   -0.9540 C   0  0  0  0  0  0
    2.4499  -12.7066   -1.2993 C   0  0  0  0  0  0
    2.0411  -10.8597    0.4571 C   0  0  0  0  0  0
    2.6714  -11.8859    1.5134 C   0  0  0  0  0  0
    4.1403  -12.4899    1.4378 C   0  0  0  0  0  0
    4.2721  -14.0684    1.8987 C   0  0  0  0  0  0
    3.3832  -14.9151    0.9892 C   0  0  0  0  0  0
    5.7478  -14.6741    1.9189 C   0  0  0  0  0  0
    6.2465  -15.8151    2.9523 C   0  0  0  0  0  0
    7.5411  -16.6633    2.7065 C   0  0  0  0  0  0
    8.9445  -16.0522    3.1608 C   0  0  0  0  0  0
    9.6432  -14.8181    2.4655 C   0  0  0  0  0  0
    8.7854  -13.6032    2.0232 C   0  0  0  0  0  0
    9.5710  -12.3281    1.5270 C   0  0  0  0  0  0
   11.1007  -12.4377    1.5070 C   0  0  0  0  0  0
   11.9290  -11.1482    1.2437 C   0  0  0  0  0  0
   13.3871  -11.0217    1.7761 C   0  0  0  0  0  0
   13.5451  -10.5338    3.2094 C   0  0  0  0  0  0
   14.1360  -12.2742    1.5598 N   0  0  0  0  0  0
   12.0489  -11.0767   -0.2000 O   0  0  0  0  0  0
    9.1200  -12.0186    0.2039 O   0  0  0  0  0  0
    6.4837  -15.1175    4.1867 O   0  0  0  0  0  0
    2.6217  -11.2213    2.8050 O   0  0  0  0  0  0
    1.4714  -10.5712    3.1204 C   0  0  0  0  0  0
    0.5148  -10.4051    2.3877 O   0  0  0  0  0  0
    1.5313  -10.1736    4.5695 C   0  0  0  0  0  0
    1.0251  -11.2814    5.5070 C   0  0  0  0  0  0
   -0.1441  -12.0723    4.9063 C   0  0  0  0  0  0
    0.3281  -12.9885    3.8014 C   0  0  0  0  0  0
    1.1241  -13.9052    3.9741 O   0  0  0  0  0  0
   -0.2094  -12.7049    2.6057 O   0  0  0  0  0  0
    2.2220  -12.2125    5.7447 C   0  0  0  0  0  0
    2.9556  -12.5980    4.8471 O   0  0  0  0  0  0
    2.3693  -12.6104    7.0158 O   0  0  0  0  0  0
    2.8751   -9.6431    0.3008 O   0  0  0  0  0  0
    2.2591   -8.4059    0.3898 C   0  0  0  0  0  0
    1.0514   -8.2351    0.4923 O   0  0  0  0  0  0
    3.2654   -7.2483    0.3466 C   0  0  0  0  0  0
    3.9976   -6.9369    1.6887 C   0  0  0  0  0  0
    3.1389   -6.5738    2.9139 C   0  0  0  0  0  0
    3.8856   -6.6964    4.2107 C   0  0  0  0  0  0
    4.1456   -7.7431    4.7882 O   0  0  0  0  0  0
    4.2761   -5.5066    4.6926 O   0  0  0  0  0  0
    4.9933   -8.0141    2.1367 C   0  0  0  0  0  0
    6.0868   -7.7518    2.5974 O   0  0  0  0  0  0
    4.5357   -9.2827    2.0870 O   0  0  0  0  0  0
   13.7738  -12.7409    0.7295 H   0  0  0  0  0  0
   13.9326  -12.9137    2.3313 H   0  0  0  0  0  0
   12.5209  -11.8991   -0.4494 H   0  0  0  0  0  0
    9.2731  -12.7990   -0.3600 H   0  0  0  0  0  0
    6.6381  -15.7794    4.8813 H   0  0  0  0  0  0
    0.1040  -13.2597    1.8659 H   0  0  0  0  0  0
    1.6573  -12.2990    7.6281 H   0  0  0  0  0  0
    4.8231   -5.6899    5.4853 H   0  0  0  0  0  0
    3.7200   -9.4553    2.6077 H   0  0  0  0  0  0
  1  2  1  0  0  0
  2  3  1  0  0  0
  3  4  1  0  0  0
  4  5  1  0  0  0
  5  6  1  0  0  0
  5  7  1  0  0  0
  7  8  1  0  0  0
  7 39  1  0  0  0
  8  9  1  0  0  0
  8 27  1  0  0  0
  9 10  1  0  0  0
 10 11  1  0  0  0
 10 12  1  0  0  0
 12 13  1  0  0  0
 13 14  1  0  0  0
 13 26  1  0  0  0
 14 15  1  0  0  0
 15 16  1  0  0  0
 16 17  1  0  0  0
 17 18  1  0  0  0
 18 19  1  0  0  0
 18 25  1  0  0  0
 19 20  1  0  0  0
 20 21  1  0  0  0
 20 24  1  0  0  0
 21 22  1  0  0  0
 21 23  1  0  0  0
 23 51  1  0  0  0
 23 52  1  0  0  0
 24 53  1  0  0  0
 25 54  1  0  0  0
 26 55  1  0  0  0
 27 28  1  0  0  0
 28 29  2  0  0  0
 28 30  1  0  0  0
 30 31  1  0  0  0
 31 32  1  0  0  0
 31 36  1  0  0  0
 32 33  1  0  0  0
 33 34  2  0  0  0
 33 35  1  0  0  0
 35 56  1  0  0  0
 36 37  2  0  0  0
 36 38  1  0  0  0
 38 57  1  0  0  0
 39 40  1  0  0  0
 40 41  2  0  0  0
 40 42  1  0  0  0
 42 43  1  0  0  0
 43 44  1  0  0  0
 43 48  1  0  0  0
 44 45  1  0  0  0
 45 46  2  0  0  0
 45 47  1  0  0  0
 47 58  1  0  0  0
 48 49  2  0  0  0
 48 50  1  0  0  0
 50 59  1  0  0  0
M  END
>  <AUTHOR>
    GENERATED BY OPEN BABEL 2.4.1

>  <CHROM.1>
65.81323515,-81.38722597,161.34872673,-148.41637026,74.23276290,96.92990268
-142.12494747,44.16392475,59.70183305,148.04210108,162.63008396,84.47245600
170.41591483,-69.45894152,40.79519602,171.54311727,1.25582245,-170.53342425
-57.69208103,154.17844038,-85.20168801,-60.58486349,29.89962441,-5.92136361
-86.99032909,-35.81769873,73.09865854,-45.11331711,62.06651639,177.76685836
3.56976239,-5.61401076,-80.29900953,-58.61095960,162.85687577,137.79726856
-76.65782322,-174.72057971,-57.07217381,4.62163328,-11.26977171,2.07623033
-2.91351092,-0.04301865,2.85988071

>  <COMPND>
    UNNAMED

>  <MASTER>
        0    0    0    0    0    0    0    0  109    0  109    0

>  <Name>
FB1.pdb

>  <RI>
0

>  <Rbt.Current_Directory>
/home/fc/tossine/FB1_39/p3/1_clust05

>  <Rbt.Executable>
rbdock/0.1.0

>  <Rbt.Library>
librxdock.so/0.1.0

>  <Rbt.Parameter_File>
/cluster/rxdock/data/scripts/dock.prm

>  <Rbt.Receptor>
rx_4.prm

>  <SCORE>
45.0767

>  <SCORE.INTER>
18.7533

>  <SCORE.INTER.CONST>
1

>  <SCORE.INTER.POLAR>
-1.84627

>  <SCORE.INTER.REPUL>
1.05185

>  <SCORE.INTER.ROT>
32

>  <SCORE.INTER.VDW>
-17.6286

>  <SCORE.INTER.norm>
0.375066

>  <SCORE.INTRA>
21.8394

>  <SCORE.INTRA.DIHEDRAL>
27.262

>  <SCORE.INTRA.DIHEDRAL.0>
47.3121

>  <SCORE.INTRA.POLAR>
1.03982

>  <SCORE.INTRA.POLAR.0>
-1.47808

>  <SCORE.INTRA.REPUL>
0.00522585

>  <SCORE.INTRA.REPUL.0>
0

>  <SCORE.INTRA.VDW>
4.64684

>  <SCORE.INTRA.VDW.0>
-2.78316

>  <SCORE.INTRA.norm>
0.436787

>  <SCORE.RESTR>
4.48404

>  <SCORE.RESTR.CAVITY>
4.48404

>  <SCORE.RESTR.norm>
0.0896809

>  <SCORE.SYSTEM>
0

>  <SCORE.SYSTEM.CONST>
0

>  <SCORE.SYSTEM.DIHEDRAL>
0

>  <SCORE.SYSTEM.norm>
0

>  <SCORE.heavy>
50

>  <SCORE.norm>
0.901534

$$$$
