FB1.pdb
  RxDock  10072009243D
librxdock.so/0.1.0
 59 58  0  0  0  0  0  0  0  0999 V2000
   -0.9104   -8.6006   -2.6156 C   0  0  0  0  0  0
   -0.2891   -9.9853   -2.4481 C   0  0  0  0  0  0
    0.4082  -10.1355   -1.0860 C   0  0  0  0  0  0
   -0.4553  -10.8659   -0.0274 C   0  0  0  0  0  0
    0.2447  -11.0876    1.3587 C   0  0  0  0  0  0
   -0.7767  -11.7383    2.3199 C   0  0  0  0  0  0
    1.5702  -11.9552    1.2671 C   0  0  0  0  0  0
    2.5464  -11.9251    2.5369 C   0  0  0  0  0  0
    3.7868  -12.8944    2.7607 C   0  0  0  0  0  0
    4.9024  -12.8946    1.5455 C   0  0  0  0  0  0
    5.6299  -11.5511    1.5545 C   0  0  0  0  0  0
    5.9690  -14.0806    1.5704 C   0  0  0  0  0  0
    7.5668  -13.8674    1.4276 C   0  0  0  0  0  0
    8.1895  -12.5636    0.8207 C   0  0  0  0  0  0
    9.5915  -12.0568    1.3924 C   0  0  0  0  0  0
   10.8798  -12.9618    1.5173 C   0  0  0  0  0  0
   12.1677  -12.3751    2.1533 C   0  0  0  0  0  0
   12.8415  -11.1665    1.3954 C   0  0  0  0  0  0
   13.6828  -10.2118    2.2515 C   0  0  0  0  0  0
   13.0190   -9.5593    3.4973 C   0  0  0  0  0  0
   13.8810   -8.7910    4.5422 C   0  0  0  0  0  0
   13.9795   -9.4130    5.9281 C   0  0  0  0  0  0
   15.2209   -8.4935    4.0012 N   0  0  0  0  0  0
   12.1140   -8.5649    2.9531 O   0  0  0  0  0  0
   13.6735  -11.7026    0.3609 O   0  0  0  0  0  0
    8.0700  -13.9327    2.7727 O   0  0  0  0  0  0
    3.1209  -10.5906    2.5763 O   0  0  0  0  0  0
    2.3139   -9.5839    3.0012 C   0  0  0  0  0  0
    1.2489   -9.7091    3.5752 O   0  0  0  0  0  0
    3.0050   -8.2751    2.7348 C   0  0  0  0  0  0
    2.0538   -7.2103    2.1658 C   0  0  0  0  0  0
    1.2562   -6.4886    3.2596 C   0  0  0  0  0  0
    0.1572   -5.6403    2.6630 C   0  0  0  0  0  0
    0.3566   -4.5689    2.1009 O   0  0  0  0  0  0
   -1.0656   -6.1729    2.8050 O   0  0  0  0  0  0
    2.9424   -6.2083    1.4158 C   0  0  0  0  0  0
    2.4944   -5.3192    0.7079 O   0  0  0  0  0  0
    4.2578   -6.4188    1.5614 O   0  0  0  0  0  0
    1.2740  -13.3407    0.8284 O   0  0  0  0  0  0
    2.0211  -13.8782   -0.2065 C   0  0  0  0  0  0
    2.7410  -13.2304   -0.9552 O   0  0  0  0  0  0
    1.8512  -15.3989   -0.3206 C   0  0  0  0  0  0
    2.9599  -16.2575    0.3637 C   0  0  0  0  0  0
    4.4187  -16.0402   -0.0780 C   0  0  0  0  0  0
    5.1711  -17.3254   -0.2698 C   0  0  0  0  0  0
    6.3673  -17.4882   -0.0723 O   0  0  0  0  0  0
    4.3782  -18.3284   -0.6769 O   0  0  0  0  0  0
    2.9404  -16.2196    1.8968 C   0  0  0  0  0  0
    2.1221  -15.5835    2.5312 O   0  0  0  0  0  0
    3.8308  -17.0290    2.5077 O   0  0  0  0  0  0
   15.1747   -7.6415    3.4441 H   0  0  0  0  0  0
   15.4759   -9.2286    3.3378 H   0  0  0  0  0  0
   12.6763   -8.0126    2.3698 H   0  0  0  0  0  0
   14.0817  -10.9577   -0.1178 H   0  0  0  0  0  0
    9.0318  -14.0644    2.7279 H   0  0  0  0  0  0
   -1.1062   -6.9846    3.3463 H   0  0  0  0  0  0
    4.8322   -5.7468    1.1173 H   0  0  0  0  0  0
    3.5324  -17.9212   -0.9600 H   0  0  0  0  0  0
    4.4442  -17.5075    1.9069 H   0  0  0  0  0  0
  1  2  1  0  0  0
  2  3  1  0  0  0
  3  4  1  0  0  0
  4  5  1  0  0  0
  5  6  1  0  0  0
  5  7  1  0  0  0
  7  8  1  0  0  0
  7 39  1  0  0  0
  8  9  1  0  0  0
  8 27  1  0  0  0
  9 10  1  0  0  0
 10 11  1  0  0  0
 10 12  1  0  0  0
 12 13  1  0  0  0
 13 14  1  0  0  0
 13 26  1  0  0  0
 14 15  1  0  0  0
 15 16  1  0  0  0
 16 17  1  0  0  0
 17 18  1  0  0  0
 18 19  1  0  0  0
 18 25  1  0  0  0
 19 20  1  0  0  0
 20 21  1  0  0  0
 20 24  1  0  0  0
 21 22  1  0  0  0
 21 23  1  0  0  0
 23 51  1  0  0  0
 23 52  1  0  0  0
 24 53  1  0  0  0
 25 54  1  0  0  0
 26 55  1  0  0  0
 27 28  1  0  0  0
 28 29  2  0  0  0
 28 30  1  0  0  0
 30 31  1  0  0  0
 31 32  1  0  0  0
 31 36  1  0  0  0
 32 33  1  0  0  0
 33 34  2  0  0  0
 33 35  1  0  0  0
 35 56  1  0  0  0
 36 37  2  0  0  0
 36 38  1  0  0  0
 38 57  1  0  0  0
 39 40  1  0  0  0
 40 41  2  0  0  0
 40 42  1  0  0  0
 42 43  1  0  0  0
 43 44  1  0  0  0
 43 48  1  0  0  0
 44 45  1  0  0  0
 45 46  2  0  0  0
 45 47  1  0  0  0
 47 58  1  0  0  0
 48 49  2  0  0  0
 48 50  1  0  0  0
 50 59  1  0  0  0
M  END
>  <AUTHOR>
    GENERATED BY OPEN BABEL 2.4.1

>  <CHROM.1>
98.64605177,177.71686916,176.29953894,164.82838351,169.17586867,130.63070021
55.84885576,74.60554449,69.66669875,-130.79199639,-19.31571602,146.94777553
164.10969129,51.79613898,-177.04413627,-63.36308941,154.11626311,-54.73036734
179.21090057,168.99502876,-113.21915183,-54.11550238,83.74357028,14.18721983
137.30350954,83.04854815,-169.46655157,171.00532813,-75.09033352,5.85680266
-177.00234184,-14.07840883,-97.16663807,-57.49563296,-136.29713215,0.63953453
-147.92745482,13.52990315,4.39450864,5.03448834,-11.38193264,1.55961658,-3.09693661
0.15394836,-2.94509123

>  <COMPND>
    UNNAMED

>  <MASTER>
        0    0    0    0    0    0    0    0  109    0  109    0

>  <Name>
FB1.pdb

>  <RI>
0

>  <Rbt.Current_Directory>
/home/fc/tossine/FB1_39/p3/1_clust05

>  <Rbt.Executable>
rbdock/0.1.0

>  <Rbt.Library>
librxdock.so/0.1.0

>  <Rbt.Parameter_File>
/cluster/rxdock/data/scripts/dock.prm

>  <Rbt.Receptor>
rx_3.prm

>  <SCORE>
104.787

>  <SCORE.INTER>
78.3789

>  <SCORE.INTER.CONST>
1

>  <SCORE.INTER.POLAR>
-0.222932

>  <SCORE.INTER.REPUL>
0.827484

>  <SCORE.INTER.ROT>
32

>  <SCORE.INTER.VDW>
37.5994

>  <SCORE.INTER.norm>
1.56758

>  <SCORE.INTRA>
23.0832

>  <SCORE.INTRA.DIHEDRAL>
15.931

>  <SCORE.INTRA.DIHEDRAL.0>
47.3121

>  <SCORE.INTRA.POLAR>
1.47808

>  <SCORE.INTRA.POLAR.0>
-1.47808

>  <SCORE.INTRA.REPUL>
0

>  <SCORE.INTRA.REPUL.0>
0

>  <SCORE.INTRA.VDW>
10.0923

>  <SCORE.INTRA.VDW.0>
-2.78316

>  <SCORE.INTRA.norm>
0.461664

>  <SCORE.RESTR>
3.32496

>  <SCORE.RESTR.CAVITY>
3.32496

>  <SCORE.RESTR.norm>
0.0664992

>  <SCORE.SYSTEM>
0

>  <SCORE.SYSTEM.CONST>
0

>  <SCORE.SYSTEM.DIHEDRAL>
0

>  <SCORE.SYSTEM.norm>
0

>  <SCORE.heavy>
50

>  <SCORE.norm>
2.09574

$$$$
