FB1.pdb
  RxDock  10072009223D
librxdock.so/0.1.0
 59 58  0  0  0  0  0  0  0  0999 V2000
   13.3462  -10.1338    9.1271 C   0  0  0  0  0  0
   12.8532   -9.0107    8.2177 C   0  0  0  0  0  0
   12.7089   -9.4799    6.7606 C   0  0  0  0  0  0
   14.0342   -9.9903    6.1420 C   0  0  0  0  0  0
   13.9389  -11.3861    5.4326 C   0  0  0  0  0  0
   13.1481  -12.3451    6.3522 C   0  0  0  0  0  0
   13.2865  -11.3188    3.9877 C   0  0  0  0  0  0
   13.5400   -9.9843    3.1385 C   0  0  0  0  0  0
   13.5172   -9.8916    1.5513 C   0  0  0  0  0  0
   14.7735  -10.6409    0.7888 C   0  0  0  0  0  0
   15.8151  -11.0290    1.8369 C   0  0  0  0  0  0
   14.4006  -11.9170   -0.0929 C   0  0  0  0  0  0
   15.1881  -12.3525   -1.4378 C   0  0  0  0  0  0
   14.4439  -12.8636   -2.7189 C   0  0  0  0  0  0
   13.7641  -11.7855   -3.6805 C   0  0  0  0  0  0
   13.5184  -12.0026   -5.2256 C   0  0  0  0  0  0
   12.2026  -12.6715   -5.7039 C   0  0  0  0  0  0
   11.0495  -11.7031   -6.1748 C   0  0  0  0  0  0
   11.4194  -10.6828   -7.2586 C   0  0  0  0  0  0
   10.2740   -9.8756   -7.9331 C   0  0  0  0  0  0
   10.5935   -8.6212   -8.7990 C   0  0  0  0  0  0
   11.7856   -7.7817   -8.3615 C   0  0  0  0  0  0
   10.6967   -8.9802  -10.2262 N   0  0  0  0  0  0
    9.6518  -10.8143   -8.8472 O   0  0  0  0  0  0
    9.9672  -12.5067   -6.6571 O   0  0  0  0  0  0
   15.8866  -11.1681   -1.8570 O   0  0  0  0  0  0
   12.5311   -9.0308    3.5691 O   0  0  0  0  0  0
   12.9096   -7.7290    3.6551 C   0  0  0  0  0  0
   12.2639   -6.7663    3.2867 O   0  0  0  0  0  0
   14.2260   -7.6628    4.3791 C   0  0  0  0  0  0
   14.6820   -6.2191    4.6441 C   0  0  0  0  0  0
   13.5336   -5.3152    5.1104 C   0  0  0  0  0  0
   13.4294   -4.0781    4.2491 C   0  0  0  0  0  0
   12.4856   -3.8506    3.5000 O   0  0  0  0  0  0
   14.4721   -3.2449    4.3822 O   0  0  0  0  0  0
   15.7560   -6.3099    5.7370 C   0  0  0  0  0  0
   15.4958   -6.5210    6.9118 O   0  0  0  0  0  0
   17.0050   -6.0887    5.3047 O   0  0  0  0  0  0
   13.5924  -12.5407    3.2046 O   0  0  0  0  0  0
   12.5744  -13.1240    2.4688 C   0  0  0  0  0  0
   12.7429  -13.9399    1.5720 O   0  0  0  0  0  0
   11.1864  -12.6338    2.9017 C   0  0  0  0  0  0
    9.9876  -13.5429    2.4881 C   0  0  0  0  0  0
    9.3564  -13.3212    1.1015 C   0  0  0  0  0  0
    7.9561  -12.7842    1.1735 C   0  0  0  0  0  0
    6.9329  -13.4544    1.1525 O   0  0  0  0  0  0
    7.9243  -11.4476    1.2865 O   0  0  0  0  0  0
   10.2491  -15.0473    2.6315 C   0  0  0  0  0  0
   11.3423  -15.5048    2.9005 O   0  0  0  0  0  0
    9.1574  -15.8360    2.5448 O   0  0  0  0  0  0
   10.9084   -8.1427  -10.7668 H   0  0  0  0  0  0
    9.7762   -9.2803  -10.5549 H   0  0  0  0  0  0
   10.3610  -11.0461   -9.4833 H   0  0  0  0  0  0
    9.6025  -13.0087   -5.9051 H   0  0  0  0  0  0
   16.4841  -10.9012   -1.1385 H   0  0  0  0  0  0
   14.3727   -2.3794    3.9412 H   0  0  0  0  0  0
   17.1033   -6.0833    4.3203 H   0  0  0  0  0  0
    8.8478  -11.1561    1.4395 H   0  0  0  0  0  0
    9.3341  -16.8024    2.5781 H   0  0  0  0  0  0
  1  2  1  0  0  0
  2  3  1  0  0  0
  3  4  1  0  0  0
  4  5  1  0  0  0
  5  6  1  0  0  0
  5  7  1  0  0  0
  7  8  1  0  0  0
  7 39  1  0  0  0
  8  9  1  0  0  0
  8 27  1  0  0  0
  9 10  1  0  0  0
 10 11  1  0  0  0
 10 12  1  0  0  0
 12 13  1  0  0  0
 13 14  1  0  0  0
 13 26  1  0  0  0
 14 15  1  0  0  0
 15 16  1  0  0  0
 16 17  1  0  0  0
 17 18  1  0  0  0
 18 19  1  0  0  0
 18 25  1  0  0  0
 19 20  1  0  0  0
 20 21  1  0  0  0
 20 24  1  0  0  0
 21 22  1  0  0  0
 21 23  1  0  0  0
 23 51  1  0  0  0
 23 52  1  0  0  0
 24 53  1  0  0  0
 25 54  1  0  0  0
 26 55  1  0  0  0
 27 28  1  0  0  0
 28 29  2  0  0  0
 28 30  1  0  0  0
 30 31  1  0  0  0
 31 32  1  0  0  0
 31 36  1  0  0  0
 32 33  1  0  0  0
 33 34  2  0  0  0
 33 35  1  0  0  0
 35 56  1  0  0  0
 36 37  2  0  0  0
 36 38  1  0  0  0
 38 57  1  0  0  0
 39 40  1  0  0  0
 40 41  2  0  0  0
 40 42  1  0  0  0
 42 43  1  0  0  0
 43 44  1  0  0  0
 43 48  1  0  0  0
 44 45  1  0  0  0
 45 46  2  0  0  0
 45 47  1  0  0  0
 47 58  1  0  0  0
 48 49  2  0  0  0
 48 50  1  0  0  0
 50 59  1  0  0  0
M  END
>  <AUTHOR>
    GENERATED BY OPEN BABEL 2.4.1

>  <CHROM.1>
-59.80626962,130.28704924,-45.52443045,32.17933455,154.23744554,136.64101176
-69.71590705,142.85644910,-10.64494723,147.94561620,-138.44084605,78.93445267
59.33246039,153.52194274,88.27968690,97.45228549,53.98502030,169.57067735
65.89796952,166.46352068,-33.74085917,-62.11730010,-179.83674843,137.46540623
-174.73307034,42.31755813,-126.46415726,-74.90887251,112.73771816,-171.38659819
-12.15850987,163.51990415,-160.59870521,-87.03193718,-112.56995794,-7.83326954
-93.95821869,-8.92598466,176.18183363,12.53441476,-10.33126500,0.93045905
1.04141408,1.14130357,1.83642731

>  <COMPND>
    UNNAMED

>  <MASTER>
        0    0    0    0    0    0    0    0  109    0  109    0

>  <Name>
FB1.pdb

>  <RI>
0

>  <Rbt.Current_Directory>
/home/fc/tossine/FB1_39/p3/1_clust05

>  <Rbt.Executable>
rbdock/0.1.0

>  <Rbt.Library>
librxdock.so/0.1.0

>  <Rbt.Parameter_File>
/cluster/rxdock/data/scripts/dock.prm

>  <Rbt.Receptor>
rx_3.prm

>  <SCORE>
81.6116

>  <SCORE.INTER>
40.9003

>  <SCORE.INTER.CONST>
1

>  <SCORE.INTER.POLAR>
-1.35743

>  <SCORE.INTER.REPUL>
1.06514

>  <SCORE.INTER.ROT>
32

>  <SCORE.INTER.VDW>
2.78992

>  <SCORE.INTER.norm>
0.818007

>  <SCORE.INTRA>
38.6104

>  <SCORE.INTRA.DIHEDRAL>
41.6219

>  <SCORE.INTRA.DIHEDRAL.0>
47.3121

>  <SCORE.INTRA.POLAR>
1.47808

>  <SCORE.INTRA.POLAR.0>
-1.47808

>  <SCORE.INTRA.REPUL>
0

>  <SCORE.INTRA.REPUL.0>
0

>  <SCORE.INTRA.VDW>
12.7739

>  <SCORE.INTRA.VDW.0>
-2.78316

>  <SCORE.INTRA.norm>
0.772207

>  <SCORE.RESTR>
2.10088

>  <SCORE.RESTR.CAVITY>
2.10088

>  <SCORE.RESTR.norm>
0.0420176

>  <SCORE.SYSTEM>
0

>  <SCORE.SYSTEM.CONST>
0

>  <SCORE.SYSTEM.DIHEDRAL>
0

>  <SCORE.SYSTEM.norm>
0

>  <SCORE.heavy>
50

>  <SCORE.norm>
1.63223

$$$$
