FB1.pdb
  RxDock  10072008463D
librxdock.so/0.1.0
 59 58  0  0  0  0  0  0  0  0999 V2000
   -1.2062   -6.3184   -2.2388 C   0  0  0  0  0  0
    0.0446   -5.4541   -2.0980 C   0  0  0  0  0  0
    1.0415   -6.0547   -1.0932 C   0  0  0  0  0  0
    0.5119   -6.0797    0.3624 C   0  0  0  0  0  0
    1.6176   -5.9794    1.4705 C   0  0  0  0  0  0
    0.9190   -5.8987    2.8475 C   0  0  0  0  0  0
    2.6618   -7.1736    1.4330 C   0  0  0  0  0  0
    2.1390   -8.6101    1.9119 C   0  0  0  0  0  0
    2.1624   -9.1391    3.4112 C   0  0  0  0  0  0
    0.7084   -9.6578    3.9927 C   0  0  0  0  0  0
    0.3443  -10.9657    3.2919 C   0  0  0  0  0  0
    0.6124   -9.8530    5.5731 C   0  0  0  0  0  0
    1.4071  -10.9974    6.3962 C   0  0  0  0  0  0
    1.7033  -12.4133    5.7932 C   0  0  0  0  0  0
    2.7864  -12.5279    4.6258 C   0  0  0  0  0  0
    2.8195  -13.6885    3.5551 C   0  0  0  0  0  0
    3.9857  -13.7536    2.5338 C   0  0  0  0  0  0
    3.8868  -14.8664    1.4198 C   0  0  0  0  0  0
    2.5570  -14.9510    0.6602 C   0  0  0  0  0  0
    2.4743  -15.8857   -0.5799 C   0  0  0  0  0  0
    2.7875  -17.4055   -0.4475 C   0  0  0  0  0  0
    4.0576  -17.7723    0.3073 C   0  0  0  0  0  0
    1.6246  -18.1368    0.0904 N   0  0  0  0  0  0
    1.0861  -15.8232   -0.9955 O   0  0  0  0  0  0
    4.9372  -14.6391    0.4739 O   0  0  0  0  0  0
    2.6986  -10.4276    6.6679 O   0  0  0  0  0  0
    0.7394   -8.6822    1.5268 O   0  0  0  0  0  0
    0.4113   -9.5770    0.5588 C   0  0  0  0  0  0
   -0.5029  -10.3782    0.5996 O   0  0  0  0  0  0
    1.3078   -9.3462   -0.6264 C   0  0  0  0  0  0
    0.6865   -9.8419   -1.9419 C   0  0  0  0  0  0
    0.7590   -8.7931   -3.0591 C   0  0  0  0  0  0
   -0.3126   -9.0284   -4.0981 C   0  0  0  0  0  0
   -0.1077   -8.9828   -5.3063 O   0  0  0  0  0  0
   -1.5172   -9.2955   -3.5723 O   0  0  0  0  0  0
    1.4847  -11.0907   -2.3412 C   0  0  0  0  0  0
    1.1617  -11.8214   -3.2654 O   0  0  0  0  0  0
    2.5430  -11.3440   -1.5590 O   0  0  0  0  0  0
    3.3488   -7.2431    0.1203 O   0  0  0  0  0  0
    4.2062   -6.2135   -0.2302 C   0  0  0  0  0  0
    4.5714   -5.3234    0.5265 O   0  0  0  0  0  0
    4.6609   -6.3048   -1.6928 C   0  0  0  0  0  0
    3.7563   -5.5704   -2.7305 C   0  0  0  0  0  0
    3.6832   -4.0338   -2.6669 C   0  0  0  0  0  0
    3.7821   -3.4993   -1.2672 C   0  0  0  0  0  0
    2.8558   -3.3993   -0.4745 O   0  0  0  0  0  0
    5.0339   -3.1427   -0.9413 O   0  0  0  0  0  0
    4.0239   -5.9509   -4.1919 C   0  0  0  0  0  0
    3.1534   -6.3487   -4.9407 O   0  0  0  0  0  0
    5.2775   -5.7140   -4.6321 O   0  0  0  0  0  0
    1.8071  -19.1381    0.0399 H   0  0  0  0  0  0
    0.8265  -17.9830   -0.5300 H   0  0  0  0  0  0
    0.5778  -16.0786   -0.1969 H   0  0  0  0  0  0
    4.8726  -15.3193   -0.2217 H   0  0  0  0  0  0
    2.5639   -9.5869    7.1365 H   0  0  0  0  0  0
   -2.2378   -9.4140   -4.2206 H   0  0  0  0  0  0
    3.1358  -12.0630   -1.8914 H   0  0  0  0  0  0
    5.5955   -3.3447   -1.7192 H   0  0  0  0  0  0
    5.3802   -5.6817   -5.6091 H   0  0  0  0  0  0
  1  2  1  0  0  0
  2  3  1  0  0  0
  3  4  1  0  0  0
  4  5  1  0  0  0
  5  6  1  0  0  0
  5  7  1  0  0  0
  7  8  1  0  0  0
  7 39  1  0  0  0
  8  9  1  0  0  0
  8 27  1  0  0  0
  9 10  1  0  0  0
 10 11  1  0  0  0
 10 12  1  0  0  0
 12 13  1  0  0  0
 13 14  1  0  0  0
 13 26  1  0  0  0
 14 15  1  0  0  0
 15 16  1  0  0  0
 16 17  1  0  0  0
 17 18  1  0  0  0
 18 19  1  0  0  0
 18 25  1  0  0  0
 19 20  1  0  0  0
 20 21  1  0  0  0
 20 24  1  0  0  0
 21 22  1  0  0  0
 21 23  1  0  0  0
 23 51  1  0  0  0
 23 52  1  0  0  0
 24 53  1  0  0  0
 25 54  1  0  0  0
 26 55  1  0  0  0
 27 28  1  0  0  0
 28 29  2  0  0  0
 28 30  1  0  0  0
 30 31  1  0  0  0
 31 32  1  0  0  0
 31 36  1  0  0  0
 32 33  1  0  0  0
 33 34  2  0  0  0
 33 35  1  0  0  0
 35 56  1  0  0  0
 36 37  2  0  0  0
 36 38  1  0  0  0
 38 57  1  0  0  0
 39 40  1  0  0  0
 40 41  2  0  0  0
 40 42  1  0  0  0
 42 43  1  0  0  0
 43 44  1  0  0  0
 43 48  1  0  0  0
 44 45  1  0  0  0
 45 46  2  0  0  0
 45 47  1  0  0  0
 47 58  1  0  0  0
 48 49  2  0  0  0
 48 50  1  0  0  0
 50 59  1  0  0  0
M  END
>  <AUTHOR>
    GENERATED BY OPEN BABEL 2.4.1

>  <CHROM.1>
-65.73341473,-150.75532850,175.32933875,-71.67879348,-88.20417698,67.19435602
125.58387123,112.65453627,70.56213323,-67.99942126,-33.52957035,70.97031132
55.98022170,-155.41001203,-175.31157611,-174.97173220,49.43696762,171.32358882
-179.36393045,57.84758322,-47.50325383,-55.58851387,171.88155935,131.82022823
-155.72781406,131.02720066,-156.03081011,171.76550908,-135.19530318,177.47992960
-171.18837854,9.35234165,89.60111905,66.52270328,-33.94557649,125.65870320
-83.58556431,-1.21526547,-161.37415589,2.11234251,-9.53390304,0.03113496
0.88433043,-1.52516020,-1.07140995

>  <COMPND>
    UNNAMED

>  <MASTER>
        0    0    0    0    0    0    0    0  109    0  109    0

>  <Name>
FB1.pdb

>  <RI>
0

>  <Rbt.Current_Directory>
/home/fc/tossine/FB1_39/p3/1_clust05

>  <Rbt.Executable>
rbdock/0.1.0

>  <Rbt.Library>
librxdock.so/0.1.0

>  <Rbt.Parameter_File>
/cluster/rxdock/data/scripts/dock.prm

>  <Rbt.Receptor>
rx_2.prm

>  <SCORE>
30.4196

>  <SCORE.INTER>
8.19222

>  <SCORE.INTER.CONST>
1

>  <SCORE.INTER.POLAR>
-3.33159

>  <SCORE.INTER.REPUL>
1.09937

>  <SCORE.INTER.ROT>
32

>  <SCORE.INTER.VDW>
-23.3772

>  <SCORE.INTER.norm>
0.163844

>  <SCORE.INTRA>
19.0186

>  <SCORE.INTRA.DIHEDRAL>
17.5446

>  <SCORE.INTRA.DIHEDRAL.0>
47.3121

>  <SCORE.INTRA.POLAR>
1.47808

>  <SCORE.INTRA.POLAR.0>
-1.47808

>  <SCORE.INTRA.REPUL>
0

>  <SCORE.INTRA.REPUL.0>
0

>  <SCORE.INTRA.VDW>
5.22078

>  <SCORE.INTRA.VDW.0>
-2.78316

>  <SCORE.INTRA.norm>
0.380371

>  <SCORE.RESTR>
3.2088

>  <SCORE.RESTR.CAVITY>
3.2088

>  <SCORE.RESTR.norm>
0.0641759

>  <SCORE.SYSTEM>
0

>  <SCORE.SYSTEM.CONST>
0

>  <SCORE.SYSTEM.DIHEDRAL>
0

>  <SCORE.SYSTEM.norm>
0

>  <SCORE.heavy>
50

>  <SCORE.norm>
0.608391

$$$$
