FB1.pdb
  RxDock  10072009523D
librxdock.so/0.1.0
 59 58  0  0  0  0  0  0  0  0999 V2000
    0.2648  -11.7763    7.4862 C   0  0  0  0  0  0
    1.3115  -11.1964    6.5378 C   0  0  0  0  0  0
    1.1109  -11.6927    5.0964 C   0  0  0  0  0  0
    2.2888  -11.3426    4.1531 C   0  0  0  0  0  0
    1.8912  -10.5297    2.8719 C   0  0  0  0  0  0
    0.6158   -9.7154    3.1899 C   0  0  0  0  0  0
    3.0486   -9.5853    2.3366 C   0  0  0  0  0  0
    3.3426   -9.6187    0.7623 C   0  0  0  0  0  0
    3.9470   -8.4141   -0.0814 C   0  0  0  0  0  0
    3.5900   -6.9094    0.4929 C   0  0  0  0  0  0
    4.7809   -5.9916    0.2220 C   0  0  0  0  0  0
    2.2580   -6.2386   -0.0733 C   0  0  0  0  0  0
    1.7440   -6.3895   -1.6003 C   0  0  0  0  0  0
    1.4136   -7.7806   -2.2419 C   0  0  0  0  0  0
    1.1437   -9.0181   -1.2698 C   0  0  0  0  0  0
    1.2645  -10.5319   -1.7037 C   0  0  0  0  0  0
    0.1173  -11.1882   -2.5166 C   0  0  0  0  0  0
   -1.3178  -10.5543   -2.3496 C   0  0  0  0  0  0
   -1.4691   -9.0913   -2.7844 C   0  0  0  0  0  0
   -1.4921   -8.7729   -4.3064 C   0  0  0  0  0  0
   -1.5144   -7.2981   -4.8062 C   0  0  0  0  0  0
   -2.5403   -6.9619   -5.8794 C   0  0  0  0  0  0
   -1.6115   -6.3602   -3.6716 N   0  0  0  0  0  0
   -0.2506   -9.3233   -4.8158 O   0  0  0  0  0  0
   -2.2419  -11.3497   -3.1001 O   0  0  0  0  0  0
    0.5116   -5.6511   -1.6501 O   0  0  0  0  0  0
    4.2747  -10.7127    0.5460 O   0  0  0  0  0  0
    4.1713  -11.7841    1.3747 C   0  0  0  0  0  0
    4.3336  -11.7795    2.5801 O   0  0  0  0  0  0
    3.7199  -12.9692    0.5665 C   0  0  0  0  0  0
    3.6454  -14.2584    1.4000 C   0  0  0  0  0  0
    3.3467  -15.4961    0.5444 C   0  0  0  0  0  0
    2.0841  -15.3080   -0.2643 C   0  0  0  0  0  0
    1.7899  -14.2598   -0.8285 O   0  0  0  0  0  0
    1.3103  -16.4025   -0.3093 O   0  0  0  0  0  0
    5.0165  -14.4045    2.0744 C   0  0  0  0  0  0
    5.1530  -14.7205    3.2465 O   0  0  0  0  0  0
    6.0565  -14.1081    1.2829 O   0  0  0  0  0  0
    2.8856   -8.2000    2.8408 O   0  0  0  0  0  0
    3.5763   -7.8286    3.9823 C   0  0  0  0  0  0
    4.7219   -8.1705    4.2453 O   0  0  0  0  0  0
    2.7425   -6.9262    4.9015 C   0  0  0  0  0  0
    2.5240   -5.4651    4.3997 C   0  0  0  0  0  0
    1.1086   -4.8684    4.5044 C   0  0  0  0  0  0
    0.2381   -5.2140    3.3309 C   0  0  0  0  0  0
    0.5592   -5.9261    2.3894 O   0  0  0  0  0  0
   -0.9829   -4.6645    3.4182 O   0  0  0  0  0  0
    3.4945   -4.4356    4.9920 C   0  0  0  0  0  0
    4.6614   -4.6845    5.2223 O   0  0  0  0  0  0
    2.9963   -3.1908    5.1449 O   0  0  0  0  0  0
   -1.3072   -6.8320   -2.8211 H   0  0  0  0  0  0
   -2.5974   -6.1407   -3.5127 H   0  0  0  0  0  0
    0.2599   -8.5424   -5.1177 H   0  0  0  0  0  0
   -2.3837  -12.1860   -2.6195 H   0  0  0  0  0  0
    0.1086   -5.7971   -2.5223 H   0  0  0  0  0  0
    0.8566  -16.5573   -1.1600 H   0  0  0  0  0  0
    6.9149  -13.9905    1.7605 H   0  0  0  0  0  0
   -1.2193   -4.3597    2.5168 H   0  0  0  0  0  0
    3.4479   -2.6381    5.8208 H   0  0  0  0  0  0
  1  2  1  0  0  0
  2  3  1  0  0  0
  3  4  1  0  0  0
  4  5  1  0  0  0
  5  6  1  0  0  0
  5  7  1  0  0  0
  7  8  1  0  0  0
  7 39  1  0  0  0
  8  9  1  0  0  0
  8 27  1  0  0  0
  9 10  1  0  0  0
 10 11  1  0  0  0
 10 12  1  0  0  0
 12 13  1  0  0  0
 13 14  1  0  0  0
 13 26  1  0  0  0
 14 15  1  0  0  0
 15 16  1  0  0  0
 16 17  1  0  0  0
 17 18  1  0  0  0
 18 19  1  0  0  0
 18 25  1  0  0  0
 19 20  1  0  0  0
 20 21  1  0  0  0
 20 24  1  0  0  0
 21 22  1  0  0  0
 21 23  1  0  0  0
 23 51  1  0  0  0
 23 52  1  0  0  0
 24 53  1  0  0  0
 25 54  1  0  0  0
 26 55  1  0  0  0
 27 28  1  0  0  0
 28 29  2  0  0  0
 28 30  1  0  0  0
 30 31  1  0  0  0
 31 32  1  0  0  0
 31 36  1  0  0  0
 32 33  1  0  0  0
 33 34  2  0  0  0
 33 35  1  0  0  0
 35 56  1  0  0  0
 36 37  2  0  0  0
 36 38  1  0  0  0
 38 57  1  0  0  0
 39 40  1  0  0  0
 40 41  2  0  0  0
 40 42  1  0  0  0
 42 43  1  0  0  0
 43 44  1  0  0  0
 43 48  1  0  0  0
 44 45  1  0  0  0
 45 46  2  0  0  0
 45 47  1  0  0  0
 47 58  1  0  0  0
 48 49  2  0  0  0
 48 50  1  0  0  0
 50 59  1  0  0  0
M  END
>  <AUTHOR>
    GENERATED BY OPEN BABEL 2.4.1

>  <CHROM.1>
-169.51556023,-123.86426087,27.17782361,133.69193004,152.45228116,95.14583211
-29.46446055,32.17493923,145.87328265,-37.18682769,59.69920384,18.95648670
-173.50195248,-159.18249792,-78.49886681,-25.22886792,61.70445940,73.97676005
73.51372652,-174.47858678,-132.29571406,-114.81257925,20.41494304,-62.36071538
176.84338837,-173.23405343,-55.11542548,136.24015048,41.06338656,-143.25139893
166.12625183,39.08679065,-72.61363012,135.19780983,-85.30074858,36.58101870
2.29517140,139.90014165,156.73217033,1.89277660,-9.37197137,1.01772164,-0.76024560
1.07417826,-2.70386574

>  <COMPND>
    UNNAMED

>  <MASTER>
        0    0    0    0    0    0    0    0  109    0  109    0

>  <Name>
FB1.pdb

>  <RI>
0

>  <Rbt.Current_Directory>
/home/fc/tossine/FB1_39/p3/1_clust05

>  <Rbt.Executable>
rbdock/0.1.0

>  <Rbt.Library>
librxdock.so/0.1.0

>  <Rbt.Parameter_File>
/cluster/rxdock/data/scripts/dock.prm

>  <Rbt.Receptor>
rx_4.prm

>  <SCORE>
77.4494

>  <SCORE.INTER>
17.6529

>  <SCORE.INTER.CONST>
1

>  <SCORE.INTER.POLAR>
-1.25978

>  <SCORE.INTER.REPUL>
0.970556

>  <SCORE.INTER.ROT>
32

>  <SCORE.INTER.VDW>
-20.3167

>  <SCORE.INTER.norm>
0.353057

>  <SCORE.INTRA>
55.3769

>  <SCORE.INTRA.DIHEDRAL>
81.7663

>  <SCORE.INTRA.DIHEDRAL.0>
47.3121

>  <SCORE.INTRA.POLAR>
0.505446

>  <SCORE.INTRA.POLAR.0>
-1.47808

>  <SCORE.INTRA.REPUL>
0.00620627

>  <SCORE.INTRA.REPUL.0>
0

>  <SCORE.INTRA.VDW>
12.7442

>  <SCORE.INTRA.VDW.0>
-2.78316

>  <SCORE.INTRA.norm>
1.10754

>  <SCORE.RESTR>
4.41967

>  <SCORE.RESTR.CAVITY>
4.41967

>  <SCORE.RESTR.norm>
0.0883934

>  <SCORE.SYSTEM>
0

>  <SCORE.SYSTEM.CONST>
0

>  <SCORE.SYSTEM.DIHEDRAL>
0

>  <SCORE.SYSTEM.norm>
0

>  <SCORE.heavy>
50

>  <SCORE.norm>
1.54899

$$$$
