FB1.pdb
  RxDock  10072009503D
librxdock.so/0.1.0
 59 58  0  0  0  0  0  0  0  0999 V2000
   -2.2372   -3.9429    4.0057 C   0  0  0  0  0  0
   -2.5630   -5.4343    3.9782 C   0  0  0  0  0  0
   -1.5071   -6.2617    4.7297 C   0  0  0  0  0  0
   -0.0741   -6.0925    4.1661 C   0  0  0  0  0  0
    0.2256   -6.9131    2.8633 C   0  0  0  0  0  0
   -0.0618   -6.0084    1.6428 C   0  0  0  0  0  0
    1.7018   -7.4922    2.8052 C   0  0  0  0  0  0
    1.8792   -8.9686    2.2094 C   0  0  0  0  0  0
    2.3317  -10.2440    3.0443 C   0  0  0  0  0  0
    1.3859  -10.5977    4.3488 C   0  0  0  0  0  0
    0.1972  -11.4318    3.8742 C   0  0  0  0  0  0
    2.1097  -11.3394    5.5615 C   0  0  0  0  0  0
    2.3192  -12.9415    5.6505 C   0  0  0  0  0  0
    3.0933  -13.6234    6.8303 C   0  0  0  0  0  0
    4.6835  -13.7277    6.7327 C   0  0  0  0  0  0
    5.4713  -14.0817    5.4104 C   0  0  0  0  0  0
    5.2657  -15.4687    4.7460 C   0  0  0  0  0  0
    6.0934  -15.7517    3.4330 C   0  0  0  0  0  0
    5.7692  -14.8681    2.2219 C   0  0  0  0  0  0
    4.4373  -15.1211    1.4601 C   0  0  0  0  0  0
    3.7126  -13.9552    0.7246 C   0  0  0  0  0  0
    2.1955  -14.0473    0.6389 C   0  0  0  0  0  0
    4.1317  -12.6495    1.2686 N   0  0  0  0  0  0
    4.7849  -16.0655    0.4155 O   0  0  0  0  0  0
    7.4825  -15.6027    3.7458 O   0  0  0  0  0  0
    0.9897  -13.4853    5.7101 O   0  0  0  0  0  0
    0.5882   -9.3409    1.6551 O   0  0  0  0  0  0
    0.5756  -10.3480    0.7436 C   0  0  0  0  0  0
    0.6640  -11.5371    0.9840 O   0  0  0  0  0  0
    0.3305   -9.7557   -0.6168 C   0  0  0  0  0  0
    0.6228  -10.7477   -1.7539 C   0  0  0  0  0  0
    0.7357  -10.0599   -3.1205 C   0  0  0  0  0  0
   -0.5505   -9.3550   -3.4839 C   0  0  0  0  0  0
   -0.6352   -8.1436   -3.6546 O   0  0  0  0  0  0
   -1.5982  -10.1836   -3.6049 O   0  0  0  0  0  0
    1.9538  -11.4221   -1.3937 C   0  0  0  0  0  0
    2.8170  -10.8777   -0.7221 O   0  0  0  0  0  0
    2.1145  -12.6443   -1.9192 O   0  0  0  0  0  0
    2.6322   -6.5245    2.1746 O   0  0  0  0  0  0
    2.7569   -5.2662    2.7395 C   0  0  0  0  0  0
    3.0648   -5.0535    3.9050 O   0  0  0  0  0  0
    2.4647   -4.1437    1.7350 C   0  0  0  0  0  0
    3.5422   -3.9286    0.6272 C   0  0  0  0  0  0
    4.9542   -3.4988    1.0652 C   0  0  0  0  0  0
    5.9597   -3.5666   -0.0478 C   0  0  0  0  0  0
    6.5797   -4.5643   -0.3896 O   0  0  0  0  0  0
    6.1119   -2.3898   -0.6743 O   0  0  0  0  0  0
    3.7072   -5.1080   -0.3393 C   0  0  0  0  0  0
    3.5362   -6.2639   -0.0058 O   0  0  0  0  0  0
    3.9528   -4.7745   -1.6237 O   0  0  0  0  0  0
    3.5273  -12.4042    2.0515 H   0  0  0  0  0  0
    3.9550  -11.9301    0.5638 H   0  0  0  0  0  0
    5.7616  -16.0106    0.3484 H   0  0  0  0  0  0
    7.6955  -16.2076    4.4801 H   0  0  0  0  0  0
    0.5561  -13.1329    6.5053 H   0  0  0  0  0  0
   -2.3705   -9.8130   -4.0736 H   0  0  0  0  0  0
    1.4185  -12.9046   -2.5724 H   0  0  0  0  0  0
    6.6039   -2.5734   -1.5022 H   0  0  0  0  0  0
    3.8067   -5.4924   -2.2791 H   0  0  0  0  0  0
  1  2  1  0  0  0
  2  3  1  0  0  0
  3  4  1  0  0  0
  4  5  1  0  0  0
  5  6  1  0  0  0
  5  7  1  0  0  0
  7  8  1  0  0  0
  7 39  1  0  0  0
  8  9  1  0  0  0
  8 27  1  0  0  0
  9 10  1  0  0  0
 10 11  1  0  0  0
 10 12  1  0  0  0
 12 13  1  0  0  0
 13 14  1  0  0  0
 13 26  1  0  0  0
 14 15  1  0  0  0
 15 16  1  0  0  0
 16 17  1  0  0  0
 17 18  1  0  0  0
 18 19  1  0  0  0
 18 25  1  0  0  0
 19 20  1  0  0  0
 20 21  1  0  0  0
 20 24  1  0  0  0
 21 22  1  0  0  0
 21 23  1  0  0  0
 23 51  1  0  0  0
 23 52  1  0  0  0
 24 53  1  0  0  0
 25 54  1  0  0  0
 26 55  1  0  0  0
 27 28  1  0  0  0
 28 29  2  0  0  0
 28 30  1  0  0  0
 30 31  1  0  0  0
 31 32  1  0  0  0
 31 36  1  0  0  0
 32 33  1  0  0  0
 33 34  2  0  0  0
 33 35  1  0  0  0
 35 56  1  0  0  0
 36 37  2  0  0  0
 36 38  1  0  0  0
 38 57  1  0  0  0
 39 40  1  0  0  0
 40 41  2  0  0  0
 40 42  1  0  0  0
 42 43  1  0  0  0
 43 44  1  0  0  0
 43 48  1  0  0  0
 44 45  1  0  0  0
 45 46  2  0  0  0
 45 47  1  0  0  0
 47 58  1  0  0  0
 48 49  2  0  0  0
 48 50  1  0  0  0
 50 59  1  0  0  0
M  END
>  <AUTHOR>
    GENERATED BY OPEN BABEL 2.4.1

>  <CHROM.1>
-58.49779235,-78.81085857,93.10830543,140.57176472,-112.38008507,58.00776134
56.94332656,160.20415378,84.57425439,-84.93267867,177.18658063,-85.05258661
-60.59465716,-40.51986290,-63.16776604,-179.65965132,-64.36803345,-73.63304765
56.62115221,150.74184002,-149.53724117,-17.58932786,-88.48170759,77.28555360
166.48074856,-164.87027801,-60.55115833,-28.20449746,117.79233384,-163.58818043
8.23363257,56.00431967,-71.28040143,-63.03232858,169.50436036,-31.77368081
-84.60558497,-166.52860213,-163.34977452,2.42999034,-9.53274238,1.65113611
-2.86446890,1.36810120,-2.11862668

>  <COMPND>
    UNNAMED

>  <MASTER>
        0    0    0    0    0    0    0    0  109    0  109    0

>  <Name>
FB1.pdb

>  <RI>
0

>  <Rbt.Current_Directory>
/home/fc/tossine/FB1_39/p3/1_clust05

>  <Rbt.Executable>
rbdock/0.1.0

>  <Rbt.Library>
librxdock.so/0.1.0

>  <Rbt.Parameter_File>
/cluster/rxdock/data/scripts/dock.prm

>  <Rbt.Receptor>
rx_4.prm

>  <SCORE>
56.2815

>  <SCORE.INTER>
20.4646

>  <SCORE.INTER.CONST>
1

>  <SCORE.INTER.POLAR>
-1.75687

>  <SCORE.INTER.REPUL>
0.950361

>  <SCORE.INTER.ROT>
32

>  <SCORE.INTER.VDW>
-15.7139

>  <SCORE.INTER.norm>
0.409291

>  <SCORE.INTRA>
29.0968

>  <SCORE.INTRA.DIHEDRAL>
45.4315

>  <SCORE.INTRA.DIHEDRAL.0>
47.3121

>  <SCORE.INTRA.POLAR>
0.714096

>  <SCORE.INTRA.POLAR.0>
-1.47808

>  <SCORE.INTRA.REPUL>
0

>  <SCORE.INTRA.REPUL.0>
0

>  <SCORE.INTRA.VDW>
3.95312

>  <SCORE.INTRA.VDW.0>
-2.78316

>  <SCORE.INTRA.norm>
0.581936

>  <SCORE.RESTR>
6.72011

>  <SCORE.RESTR.CAVITY>
6.72011

>  <SCORE.RESTR.norm>
0.134402

>  <SCORE.SYSTEM>
0

>  <SCORE.SYSTEM.CONST>
0

>  <SCORE.SYSTEM.DIHEDRAL>
0

>  <SCORE.SYSTEM.norm>
0

>  <SCORE.heavy>
50

>  <SCORE.norm>
1.12563

$$$$
