FB1.pdb
  RxDock  10072007303D
librxdock.so/0.1.0
 59 58  0  0  0  0  0  0  0  0999 V2000
    5.7791   -3.8893   -0.1093 C   0  0  0  0  0  0
    5.4990   -5.3683   -0.3647 C   0  0  0  0  0  0
    4.6531   -5.5772   -1.6316 C   0  0  0  0  0  0
    3.7241   -6.8145   -1.5569 C   0  0  0  0  0  0
    2.6502   -6.7675   -0.4146 C   0  0  0  0  0  0
    1.5958   -5.6984   -0.7833 C   0  0  0  0  0  0
    1.9625   -8.1697   -0.1339 C   0  0  0  0  0  0
    1.7638   -8.5864    1.4001 C   0  0  0  0  0  0
    2.7269   -9.5514    2.2182 C   0  0  0  0  0  0
    2.2178  -11.1164    2.3311 C   0  0  0  0  0  0
    0.8374  -11.1314    2.9858 C   0  0  0  0  0  0
    2.1714  -11.9408    0.9662 C   0  0  0  0  0  0
    3.1382  -13.1940    0.6295 C   0  0  0  0  0  0
    4.2213  -13.7136    1.6360 C   0  0  0  0  0  0
    4.9388  -15.1056    1.3245 C   0  0  0  0  0  0
    4.4442  -16.1359    0.2344 C   0  0  0  0  0  0
    5.4676  -17.0907   -0.4353 C   0  0  0  0  0  0
    6.2331  -18.0865    0.5195 C   0  0  0  0  0  0
    7.5408  -18.6771   -0.0224 C   0  0  0  0  0  0
    7.4594  -19.9290   -0.9414 C   0  0  0  0  0  0
    6.7027  -19.8647   -2.3011 C   0  0  0  0  0  0
    6.8799  -18.5907   -3.1154 C   0  0  0  0  0  0
    6.9904  -21.0579   -3.1195 N   0  0  0  0  0  0
    8.8369  -20.2181   -1.2916 O   0  0  0  0  0  0
    6.5176  -17.3963    1.7411 O   0  0  0  0  0  0
    2.2477  -14.3047    0.4301 O   0  0  0  0  0  0
    1.7643   -7.3480    2.1609 O   0  0  0  0  0  0
    0.8821   -7.2556    3.1896 C   0  0  0  0  0  0
    0.2589   -8.1739    3.6876 O   0  0  0  0  0  0
    0.8757   -5.8359    3.6852 C   0  0  0  0  0  0
    2.2043   -5.4353    4.3461 C   0  0  0  0  0  0
    2.0865   -4.1477    5.1716 C   0  0  0  0  0  0
    1.0061   -4.2698    6.2209 C   0  0  0  0  0  0
    1.2261   -4.5710    7.3891 O   0  0  0  0  0  0
   -0.2246   -4.0146    5.7529 O   0  0  0  0  0  0
    2.5935   -6.6087    5.2559 C   0  0  0  0  0  0
    2.2306   -6.6999    6.4188 O   0  0  0  0  0  0
    3.4086   -7.5055    4.6836 O   0  0  0  0  0  0
    0.7105   -8.3180   -0.9152 O   0  0  0  0  0  0
   -0.0981   -9.4137   -0.6627 C   0  0  0  0  0  0
    0.0670  -10.2036    0.2577 O   0  0  0  0  0  0
   -1.2451   -9.5383   -1.6742 C   0  0  0  0  0  0
   -0.8832  -10.2255   -3.0274 C   0  0  0  0  0  0
   -1.6853   -9.8253   -4.2792 C   0  0  0  0  0  0
   -1.3835   -8.4313   -4.7484 C   0  0  0  0  0  0
   -1.6813   -7.4005   -4.1607 O   0  0  0  0  0  0
   -0.7130   -8.4149   -5.9105 O   0  0  0  0  0  0
    0.6029  -10.1561   -3.4004 C   0  0  0  0  0  0
    1.2262   -9.1136   -3.4378 O   0  0  0  0  0  0
    1.2105  -11.3471   -3.5835 O   0  0  0  0  0  0
    6.9825  -21.8830   -2.5214 H   0  0  0  0  0  0
    7.9502  -20.9929   -3.4658 H   0  0  0  0  0  0
    9.1053  -19.4744   -1.8715 H   0  0  0  0  0  0
    5.6822  -17.2908    2.2325 H   0  0  0  0  0  0
    1.5436  -14.0205   -0.1765 H   0  0  0  0  0  0
   -0.2632   -3.7129    4.8250 H   0  0  0  0  0  0
    3.7734   -8.1833    5.3051 H   0  0  0  0  0  0
   -0.4600   -9.3425   -6.1024 H   0  0  0  0  0  0
    0.6942  -12.1309   -3.2914 H   0  0  0  0  0  0
  1  2  1  0  0  0
  2  3  1  0  0  0
  3  4  1  0  0  0
  4  5  1  0  0  0
  5  6  1  0  0  0
  5  7  1  0  0  0
  7  8  1  0  0  0
  7 39  1  0  0  0
  8  9  1  0  0  0
  8 27  1  0  0  0
  9 10  1  0  0  0
 10 11  1  0  0  0
 10 12  1  0  0  0
 12 13  1  0  0  0
 13 14  1  0  0  0
 13 26  1  0  0  0
 14 15  1  0  0  0
 15 16  1  0  0  0
 16 17  1  0  0  0
 17 18  1  0  0  0
 18 19  1  0  0  0
 18 25  1  0  0  0
 19 20  1  0  0  0
 20 21  1  0  0  0
 20 24  1  0  0  0
 21 22  1  0  0  0
 21 23  1  0  0  0
 23 51  1  0  0  0
 23 52  1  0  0  0
 24 53  1  0  0  0
 25 54  1  0  0  0
 26 55  1  0  0  0
 27 28  1  0  0  0
 28 29  2  0  0  0
 28 30  1  0  0  0
 30 31  1  0  0  0
 31 32  1  0  0  0
 31 36  1  0  0  0
 32 33  1  0  0  0
 33 34  2  0  0  0
 33 35  1  0  0  0
 35 56  1  0  0  0
 36 37  2  0  0  0
 36 38  1  0  0  0
 38 57  1  0  0  0
 39 40  1  0  0  0
 40 41  2  0  0  0
 40 42  1  0  0  0
 42 43  1  0  0  0
 43 44  1  0  0  0
 43 48  1  0  0  0
 44 45  1  0  0  0
 45 46  2  0  0  0
 45 47  1  0  0  0
 47 58  1  0  0  0
 48 49  2  0  0  0
 48 50  1  0  0  0
 50 59  1  0  0  0
M  END
>  <AUTHOR>
    GENERATED BY OPEN BABEL 2.4.1

>  <CHROM.1>
-148.72144824,61.59023810,70.50764932,136.57375221,-98.21093856,-172.19248862
-98.27020911,140.60890668,-57.97446056,112.87163751,0.05538842,169.16863071
48.49588994,-12.60187535,152.79182620,60.92510857,-160.03619602,-83.82258965
72.26662534,61.43065703,40.12274559,-68.76520170,41.73056555,13.77951470
-67.18008535,-164.79151634,56.21266620,-88.79217843,96.88567986,-4.85087840
170.91518929,8.09347175,82.39394023,-151.72767119,70.23408400,-53.13438295
-68.61650989,-8.64721297,-11.41258004,2.64503836,-10.47769534,0.44747287
-2.28972766,0.99992643,-2.21894933

>  <COMPND>
    UNNAMED

>  <MASTER>
        0    0    0    0    0    0    0    0  109    0  109    0

>  <Name>
FB1.pdb

>  <RI>
0

>  <Rbt.Current_Directory>
/home/fc/tossine/FB1_39/p3/1_clust05

>  <Rbt.Executable>
rbdock/0.1.0

>  <Rbt.Library>
librxdock.so/0.1.0

>  <Rbt.Parameter_File>
/cluster/rxdock/data/scripts/dock.prm

>  <Rbt.Receptor>
rx_0.prm

>  <SCORE>
31.9813

>  <SCORE.INTER>
5.94462

>  <SCORE.INTER.CONST>
1

>  <SCORE.INTER.POLAR>
-2.78328

>  <SCORE.INTER.REPUL>
0.103996

>  <SCORE.INTER.ROT>
32

>  <SCORE.INTER.VDW>
-22.5122

>  <SCORE.INTER.norm>
0.118892

>  <SCORE.INTRA>
21.2469

>  <SCORE.INTRA.DIHEDRAL>
23.8977

>  <SCORE.INTRA.DIHEDRAL.0>
47.3121

>  <SCORE.INTRA.POLAR>
1.47808

>  <SCORE.INTRA.POLAR.0>
-1.47808

>  <SCORE.INTRA.REPUL>
0

>  <SCORE.INTRA.REPUL.0>
0

>  <SCORE.INTRA.VDW>
4.27256

>  <SCORE.INTRA.VDW.0>
-2.78316

>  <SCORE.INTRA.norm>
0.424937

>  <SCORE.RESTR>
4.78985

>  <SCORE.RESTR.CAVITY>
4.78985

>  <SCORE.RESTR.norm>
0.095797

>  <SCORE.SYSTEM>
0

>  <SCORE.SYSTEM.CONST>
0

>  <SCORE.SYSTEM.DIHEDRAL>
0

>  <SCORE.SYSTEM.norm>
0

>  <SCORE.heavy>
50

>  <SCORE.norm>
0.639627

$$$$
