FB1.pdb
  RxDock  10072007323D
librxdock.so/0.1.0
 59 58  0  0  0  0  0  0  0  0999 V2000
    2.3175  -11.0183    7.9837 C   0  0  0  0  0  0
    1.6187  -10.4607    9.2215 C   0  0  0  0  0  0
    0.6082   -9.3603    8.8577 C   0  0  0  0  0  0
   -0.5409   -9.8547    7.9440 C   0  0  0  0  0  0
   -0.1437  -10.0770    6.4430 C   0  0  0  0  0  0
   -1.4398  -10.1437    5.6025 C   0  0  0  0  0  0
    0.8425   -8.9695    5.8782 C   0  0  0  0  0  0
    1.5404   -9.2703    4.4681 C   0  0  0  0  0  0
    2.9313   -8.6672    3.9884 C   0  0  0  0  0  0
    2.8582   -7.1328    3.3869 C   0  0  0  0  0  0
    4.1545   -6.4086    3.7465 C   0  0  0  0  0  0
    2.5906   -7.0041    1.8196 C   0  0  0  0  0  0
    3.1934   -8.0157    0.7098 C   0  0  0  0  0  0
    2.6281   -8.0953   -0.7498 C   0  0  0  0  0  0
    2.8772   -9.4320   -1.5866 C   0  0  0  0  0  0
    2.6877  -10.8900   -1.0096 C   0  0  0  0  0  0
    1.2558  -11.4544   -0.8133 C   0  0  0  0  0  0
    0.0616  -10.5016   -1.2073 C   0  0  0  0  0  0
   -0.2083  -10.3354   -2.7079 C   0  0  0  0  0  0
   -1.4013   -9.4402   -3.1478 C   0  0  0  0  0  0
   -1.2730   -7.8882   -3.1350 C   0  0  0  0  0  0
    0.0875   -7.3177   -3.5104 C   0  0  0  0  0  0
   -2.3448   -7.2657   -3.9351 N   0  0  0  0  0  0
   -1.6280   -9.7867   -4.5379 O   0  0  0  0  0  0
   -1.1264  -11.0015   -0.5841 O   0  0  0  0  0  0
    4.5678   -7.6222    0.5588 O   0  0  0  0  0  0
    1.7328  -10.7097    4.4087 O   0  0  0  0  0  0
    2.2256  -11.2189    3.2498 C   0  0  0  0  0  0
    2.1361  -10.7142    2.1467 O   0  0  0  0  0  0
    2.9955  -12.4705    3.5692 C   0  0  0  0  0  0
    2.9139  -13.5166    2.4460 C   0  0  0  0  0  0
    1.5001  -13.6477    1.8653 C   0  0  0  0  0  0
    0.9275  -15.0209    2.1293 C   0  0  0  0  0  0
    1.4920  -16.0631    1.8149 O   0  0  0  0  0  0
   -0.2634  -14.9938    2.7456 O   0  0  0  0  0  0
    3.8872  -13.0435    1.3574 C   0  0  0  0  0  0
    4.5670  -12.0340    1.4635 O   0  0  0  0  0  0
    3.8950  -13.8041    0.2541 O   0  0  0  0  0  0
    0.2141   -7.6264    5.9104 O   0  0  0  0  0  0
    1.0380   -6.5132    5.9191 C   0  0  0  0  0  0
    2.2435   -6.5408    6.1300 O   0  0  0  0  0  0
    0.2704   -5.2163    5.6310 C   0  0  0  0  0  0
    0.1055   -4.8473    4.1240 C   0  0  0  0  0  0
    1.3772   -4.5492    3.3089 C   0  0  0  0  0  0
    1.0856   -4.1581    1.8889 C   0  0  0  0  0  0
    0.0800   -4.4557    1.2590 O   0  0  0  0  0  0
    2.0588   -3.4052    1.3538 O   0  0  0  0  0  0
   -0.7301   -5.8440    3.3112 C   0  0  0  0  0  0
   -0.2351   -6.6756    2.5762 O   0  0  0  0  0  0
   -2.0589   -5.8120    3.5447 O   0  0  0  0  0  0
   -3.1442   -7.8967   -3.9712 H   0  0  0  0  0  0
   -2.0264   -7.1881   -4.9036 H   0  0  0  0  0  0
   -1.0685   -9.1595   -5.0429 H   0  0  0  0  0  0
   -1.8278  -10.3319   -0.6852 H   0  0  0  0  0  0
    5.0419   -7.8680    1.3709 H   0  0  0  0  0  0
   -0.8885  -15.6934    2.4751 H   0  0  0  0  0  0
    4.5474  -13.5217   -0.4340 H   0  0  0  0  0  0
    1.7099   -3.0544    0.5074 H   0  0  0  0  0  0
   -2.5521   -6.6179    3.2737 H   0  0  0  0  0  0
  1  2  1  0  0  0
  2  3  1  0  0  0
  3  4  1  0  0  0
  4  5  1  0  0  0
  5  6  1  0  0  0
  5  7  1  0  0  0
  7  8  1  0  0  0
  7 39  1  0  0  0
  8  9  1  0  0  0
  8 27  1  0  0  0
  9 10  1  0  0  0
 10 11  1  0  0  0
 10 12  1  0  0  0
 12 13  1  0  0  0
 13 14  1  0  0  0
 13 26  1  0  0  0
 14 15  1  0  0  0
 15 16  1  0  0  0
 16 17  1  0  0  0
 17 18  1  0  0  0
 18 19  1  0  0  0
 18 25  1  0  0  0
 19 20  1  0  0  0
 20 21  1  0  0  0
 20 24  1  0  0  0
 21 22  1  0  0  0
 21 23  1  0  0  0
 23 51  1  0  0  0
 23 52  1  0  0  0
 24 53  1  0  0  0
 25 54  1  0  0  0
 26 55  1  0  0  0
 27 28  1  0  0  0
 28 29  2  0  0  0
 28 30  1  0  0  0
 30 31  1  0  0  0
 31 32  1  0  0  0
 31 36  1  0  0  0
 32 33  1  0  0  0
 33 34  2  0  0  0
 33 35  1  0  0  0
 35 56  1  0  0  0
 36 37  2  0  0  0
 36 38  1  0  0  0
 38 57  1  0  0  0
 39 40  1  0  0  0
 40 41  2  0  0  0
 40 42  1  0  0  0
 42 43  1  0  0  0
 43 44  1  0  0  0
 43 48  1  0  0  0
 44 45  1  0  0  0
 45 46  2  0  0  0
 45 47  1  0  0  0
 47 58  1  0  0  0
 48 49  2  0  0  0
 48 50  1  0  0  0
 50 59  1  0  0  0
M  END
>  <AUTHOR>
    GENERATED BY OPEN BABEL 2.4.1

>  <CHROM.1>
61.78350642,-75.40629637,-163.11974282,167.66591762,-153.94538796,157.30188368
-80.91143317,175.27746083,146.52550127,-36.79199011,163.68771947,-157.52732615
70.10014341,44.73904609,75.26210413,-0.35430183,75.64122252,178.20637598
169.62265028,78.16286436,35.69863986,-90.76022382,25.19571673,-24.79041145
147.38549058,-42.51145812,-115.62527846,1.13871524,-54.23798687,144.49639179
-177.69053461,-13.05482262,-86.96930416,-63.55382857,-177.86500461,-101.58784987
-24.32090330,-169.07144813,-160.32557395,1.18881517,-9.21152959,2.26659542
-1.17322848,1.36957789,-2.16889722

>  <COMPND>
    UNNAMED

>  <MASTER>
        0    0    0    0    0    0    0    0  109    0  109    0

>  <Name>
FB1.pdb

>  <RI>
0

>  <Rbt.Current_Directory>
/home/fc/tossine/FB1_39/p3/1_clust05

>  <Rbt.Executable>
rbdock/0.1.0

>  <Rbt.Library>
librxdock.so/0.1.0

>  <Rbt.Parameter_File>
/cluster/rxdock/data/scripts/dock.prm

>  <Rbt.Receptor>
rx_0.prm

>  <SCORE>
50.7343

>  <SCORE.INTER>
28.2237

>  <SCORE.INTER.CONST>
1

>  <SCORE.INTER.POLAR>
-3.88447

>  <SCORE.INTER.REPUL>
0.484436

>  <SCORE.INTER.ROT>
32

>  <SCORE.INTER.VDW>
1.60876

>  <SCORE.INTER.norm>
0.564475

>  <SCORE.INTRA>
16.3151

>  <SCORE.INTRA.DIHEDRAL>
23.6791

>  <SCORE.INTRA.DIHEDRAL.0>
47.3121

>  <SCORE.INTRA.POLAR>
1.47808

>  <SCORE.INTRA.POLAR.0>
-1.47808

>  <SCORE.INTRA.REPUL>
0

>  <SCORE.INTRA.REPUL.0>
0

>  <SCORE.INTRA.VDW>
-0.549941

>  <SCORE.INTRA.VDW.0>
-2.78316

>  <SCORE.INTRA.norm>
0.326302

>  <SCORE.RESTR>
6.19551

>  <SCORE.RESTR.CAVITY>
6.19551

>  <SCORE.RESTR.norm>
0.12391

>  <SCORE.SYSTEM>
0

>  <SCORE.SYSTEM.CONST>
0

>  <SCORE.SYSTEM.DIHEDRAL>
0

>  <SCORE.SYSTEM.norm>
0

>  <SCORE.heavy>
50

>  <SCORE.norm>
1.01469

$$$$
