FB1.pdb
  RxDock  10072008103D
librxdock.so/0.1.0
 59 58  0  0  0  0  0  0  0  0999 V2000
    2.2553  -19.1326   -0.5882 C   0  0  0  0  0  0
    2.6404  -17.6559   -0.6369 C   0  0  0  0  0  0
    1.6912  -16.7917    0.2096 C   0  0  0  0  0  0
    2.2244  -15.3604    0.4680 C   0  0  0  0  0  0
    1.3058  -14.4652    1.3708 C   0  0  0  0  0  0
    1.0857  -15.1963    2.7153 C   0  0  0  0  0  0
    1.8793  -13.0046    1.6063 C   0  0  0  0  0  0
    3.3402  -12.8944    2.2542 C   0  0  0  0  0  0
    4.6318  -13.6630    1.7352 C   0  0  0  0  0  0
    5.1795  -14.8606    2.7287 C   0  0  0  0  0  0
    4.4564  -16.1576    2.3693 C   0  0  0  0  0  0
    6.7553  -15.1088    2.7282 C   0  0  0  0  0  0
    7.4725  -16.3899    3.4087 C   0  0  0  0  0  0
    9.0018  -16.6862    3.2368 C   0  0  0  0  0  0
    9.8536  -17.0497    4.5374 C   0  0  0  0  0  0
   10.9693  -16.1195    5.1576 C   0  0  0  0  0  0
   11.2720  -16.1977    6.6774 C   0  0  0  0  0  0
   12.2730  -15.1229    7.2536 C   0  0  0  0  0  0
   11.6844  -13.7390    7.5550 C   0  0  0  0  0  0
   12.6454  -12.5165    7.5708 C   0  0  0  0  0  0
   13.6964  -12.3508    8.7081 C   0  0  0  0  0  0
   13.7341  -10.9972    9.4037 C   0  0  0  0  0  0
   13.5847  -13.4456    9.6906 N   0  0  0  0  0  0
   13.4253  -12.6463    6.3548 O   0  0  0  0  0  0
   12.8397  -15.6484    8.4588 O   0  0  0  0  0  0
    7.2811  -16.2129    4.8224 O   0  0  0  0  0  0
    3.7079  -11.4896    2.1910 O   0  0  0  0  0  0
    2.9289  -10.6165    2.8810 C   0  0  0  0  0  0
    1.9647  -10.8992    3.5665 O   0  0  0  0  0  0
    3.5176   -9.2398    2.7407 C   0  0  0  0  0  0
    2.5328   -8.2373    2.1181 C   0  0  0  0  0  0
    1.2701   -8.0472    2.9683 C   0  0  0  0  0  0
    0.5142   -6.8068    2.5519 C   0  0  0  0  0  0
    0.0864   -5.9750    3.3448 O   0  0  0  0  0  0
    0.3549   -6.6986    1.2246 O   0  0  0  0  0  0
    3.2958   -6.9101    2.0069 C   0  0  0  0  0  0
    3.5987   -6.4025    0.9377 O   0  0  0  0  0  0
    3.6483   -6.3745    3.1836 O   0  0  0  0  0  0
    1.7515  -12.1755    0.3831 O   0  0  0  0  0  0
    1.1067  -10.9536    0.4796 C   0  0  0  0  0  0
    0.3050  -10.6565    1.3556 O   0  0  0  0  0  0
    1.5086   -9.9910   -0.6457 C   0  0  0  0  0  0
    0.4496   -8.9085   -1.0215 C   0  0  0  0  0  0
    0.9560   -7.5535   -1.5488 C   0  0  0  0  0  0
    1.5887   -7.6521   -2.9069 C   0  0  0  0  0  0
    2.7893   -7.7223   -3.1313 O   0  0  0  0  0  0
    0.6816   -7.6760   -3.8952 O   0  0  0  0  0  0
   -0.6408   -9.3910   -1.9861 C   0  0  0  0  0  0
   -0.7349  -10.5460   -2.3518 O   0  0  0  0  0  0
   -1.5644   -8.4673   -2.3253 O   0  0  0  0  0  0
   14.2826  -13.3116   10.4209 H   0  0  0  0  0  0
   13.8463  -14.3223    9.2339 H   0  0  0  0  0  0
   14.0562  -11.8963    6.3852 H   0  0  0  0  0  0
   12.1167  -15.7947    9.0963 H   0  0  0  0  0  0
    6.3263  -16.2356    5.0018 H   0  0  0  0  0  0
    0.6872   -5.8688    0.8314 H   0  0  0  0  0  0
    4.0842   -5.4889    3.1169 H   0  0  0  0  0  0
    1.1712   -7.8714   -4.7219 H   0  0  0  0  0  0
   -2.2582   -8.7769   -2.9491 H   0  0  0  0  0  0
  1  2  1  0  0  0
  2  3  1  0  0  0
  3  4  1  0  0  0
  4  5  1  0  0  0
  5  6  1  0  0  0
  5  7  1  0  0  0
  7  8  1  0  0  0
  7 39  1  0  0  0
  8  9  1  0  0  0
  8 27  1  0  0  0
  9 10  1  0  0  0
 10 11  1  0  0  0
 10 12  1  0  0  0
 12 13  1  0  0  0
 13 14  1  0  0  0
 13 26  1  0  0  0
 14 15  1  0  0  0
 15 16  1  0  0  0
 16 17  1  0  0  0
 17 18  1  0  0  0
 18 19  1  0  0  0
 18 25  1  0  0  0
 19 20  1  0  0  0
 20 21  1  0  0  0
 20 24  1  0  0  0
 21 22  1  0  0  0
 21 23  1  0  0  0
 23 51  1  0  0  0
 23 52  1  0  0  0
 24 53  1  0  0  0
 25 54  1  0  0  0
 26 55  1  0  0  0
 27 28  1  0  0  0
 28 29  2  0  0  0
 28 30  1  0  0  0
 30 31  1  0  0  0
 31 32  1  0  0  0
 31 36  1  0  0  0
 32 33  1  0  0  0
 33 34  2  0  0  0
 33 35  1  0  0  0
 35 56  1  0  0  0
 36 37  2  0  0  0
 36 38  1  0  0  0
 38 57  1  0  0  0
 39 40  1  0  0  0
 40 41  2  0  0  0
 40 42  1  0  0  0
 42 43  1  0  0  0
 43 44  1  0  0  0
 43 48  1  0  0  0
 44 45  1  0  0  0
 45 46  2  0  0  0
 45 47  1  0  0  0
 47 58  1  0  0  0
 48 49  2  0  0  0
 48 50  1  0  0  0
 50 59  1  0  0  0
M  END
>  <AUTHOR>
    GENERATED BY OPEN BABEL 2.4.1

>  <CHROM.1>
166.24642110,-177.95081466,56.65073947,-57.20026912,50.83377923,126.02609925
-109.92582509,62.10243681,87.87116102,-168.38884904,172.38408232,132.80294413
62.88599253,-111.60667650,152.17172926,-172.94830202,80.96711901,-156.03472738
-61.57729785,-69.91902851,-129.71200333,-177.68971710,179.98941730,1.33461345
121.63183218,61.42059061,164.29564514,113.14298038,-133.01222125,-124.36859477
-175.94409331,-22.39817010,153.58583355,149.53850154,68.54434922,5.25975362
-98.24399966,-171.95234673,179.54761422,4.67077094,-11.94337624,2.44628571
2.82509814,-0.63532848,0.13528479

>  <COMPND>
    UNNAMED

>  <MASTER>
        0    0    0    0    0    0    0    0  109    0  109    0

>  <Name>
FB1.pdb

>  <RI>
0

>  <Rbt.Current_Directory>
/home/fc/tossine/FB1_39/p3/1_clust05

>  <Rbt.Executable>
rbdock/0.1.0

>  <Rbt.Library>
librxdock.so/0.1.0

>  <Rbt.Parameter_File>
/cluster/rxdock/data/scripts/dock.prm

>  <Rbt.Receptor>
rx_1.prm

>  <SCORE>
25.7843

>  <SCORE.INTER>
10.9956

>  <SCORE.INTER.CONST>
1

>  <SCORE.INTER.POLAR>
-2.82935

>  <SCORE.INTER.REPUL>
0.68727

>  <SCORE.INTER.ROT>
32

>  <SCORE.INTER.VDW>
-20.2209

>  <SCORE.INTER.norm>
0.219912

>  <SCORE.INTRA>
13.8459

>  <SCORE.INTRA.DIHEDRAL>
27.1813

>  <SCORE.INTRA.DIHEDRAL.0>
47.3121

>  <SCORE.INTRA.POLAR>
0.881452

>  <SCORE.INTRA.POLAR.0>
-1.47808

>  <SCORE.INTRA.REPUL>
0

>  <SCORE.INTRA.REPUL.0>
0

>  <SCORE.INTRA.VDW>
-2.74172

>  <SCORE.INTRA.VDW.0>
-2.78316

>  <SCORE.INTRA.norm>
0.276918

>  <SCORE.RESTR>
0.942821

>  <SCORE.RESTR.CAVITY>
0.942821

>  <SCORE.RESTR.norm>
0.0188564

>  <SCORE.SYSTEM>
0

>  <SCORE.SYSTEM.CONST>
0

>  <SCORE.SYSTEM.DIHEDRAL>
0

>  <SCORE.SYSTEM.norm>
0

>  <SCORE.heavy>
50

>  <SCORE.norm>
0.515686

$$$$
