FB1.pdb
  RxDock  10072009193D
librxdock.so/0.1.0
 59 58  0  0  0  0  0  0  0  0999 V2000
   14.2437   -9.1939   11.1921 C   0  0  0  0  0  0
   13.6517   -9.5270    9.8246 C   0  0  0  0  0  0
   12.6682   -8.4441    9.3509 C   0  0  0  0  0  0
   11.7033   -8.9294    8.2404 C   0  0  0  0  0  0
   11.5889   -7.9757    7.0002 C   0  0  0  0  0  0
   11.4618   -6.5233    7.5148 C   0  0  0  0  0  0
   12.7980   -8.1133    5.9819 C   0  0  0  0  0  0
   12.8762   -9.4655    5.1267 C   0  0  0  0  0  0
   14.1124   -9.9120    4.2318 C   0  0  0  0  0  0
   13.7167  -10.6470    2.8090 C   0  0  0  0  0  0
   14.9960  -11.1804    2.1662 C   0  0  0  0  0  0
   12.6354  -11.8164    2.8986 C   0  0  0  0  0  0
   11.8026  -12.3816    1.6314 C   0  0  0  0  0  0
   11.1993  -11.4388    0.5345 C   0  0  0  0  0  0
   12.1956  -10.5053   -0.2932 C   0  0  0  0  0  0
   13.5828  -10.9840   -0.8774 C   0  0  0  0  0  0
   13.9307  -10.6886   -2.3603 C   0  0  0  0  0  0
   13.0681  -11.4357   -3.4498 C   0  0  0  0  0  0
   13.4933  -11.2328   -4.9094 C   0  0  0  0  0  0
   13.2363   -9.8470   -5.5665 C   0  0  0  0  0  0
   13.4151   -9.6536   -7.1014 C   0  0  0  0  0  0
   13.5239   -8.2177   -7.5952 C   0  0  0  0  0  0
   14.5338  -10.4714   -7.6073 N   0  0  0  0  0  0
   11.8339   -9.5752   -5.3146 O   0  0  0  0  0  0
   13.1030  -12.8366   -3.1564 O   0  0  0  0  0  0
   12.7274  -13.2296    0.9300 O   0  0  0  0  0  0
   12.7048  -10.5553    6.0729 O   0  0  0  0  0  0
   13.6638  -10.7034    7.0236 C   0  0  0  0  0  0
   14.5753   -9.9313    7.2523 O   0  0  0  0  0  0
   13.3547  -11.9390    7.8231 C   0  0  0  0  0  0
   12.2674  -12.8076    7.1706 C   0  0  0  0  0  0
   12.8486  -14.0115    6.4182 C   0  0  0  0  0  0
   11.8269  -14.6143    5.4821 C   0  0  0  0  0  0
   11.7843  -14.3757    4.2801 O   0  0  0  0  0  0
   10.9658  -15.4420    6.0923 O   0  0  0  0  0  0
   11.3677  -13.2892    8.3172 C   0  0  0  0  0  0
   11.0420  -14.4575    8.4638 O   0  0  0  0  0  0
   10.9255  -12.3123    9.1209 O   0  0  0  0  0  0
   12.9165   -6.9081    5.1255 O   0  0  0  0  0  0
   13.7504   -5.8835    5.5413 C   0  0  0  0  0  0
   13.4658   -4.6937    5.4998 O   0  0  0  0  0  0
   15.0939   -6.4026    6.0704 C   0  0  0  0  0  0
   16.2666   -5.3733    6.0666 C   0  0  0  0  0  0
   16.3515   -4.3777    4.8953 C   0  0  0  0  0  0
   17.6317   -3.5933    4.8838 C   0  0  0  0  0  0
   18.6822   -3.9496    4.3679 O   0  0  0  0  0  0
   17.5124   -2.4073    5.4997 O   0  0  0  0  0  0
   16.4079   -4.5629    7.3610 C   0  0  0  0  0  0
   17.1185   -4.9106    8.2835 O   0  0  0  0  0  0
   15.7711   -3.3731    7.3721 O   0  0  0  0  0  0
   15.3853  -10.2181   -7.1081 H   0  0  0  0  0  0
   14.7126  -10.2139   -8.5806 H   0  0  0  0  0  0
   11.3583  -10.3212   -5.7371 H   0  0  0  0  0  0
   12.4457  -13.2823   -3.7219 H   0  0  0  0  0  0
   12.8079  -14.0617    1.4257 H   0  0  0  0  0  0
   11.0124  -15.4465    7.0677 H   0  0  0  0  0  0
   10.4281  -12.6286    9.9155 H   0  0  0  0  0  0
   18.3546   -1.9274    5.3516 H   0  0  0  0  0  0
   15.7878   -2.8803    6.5218 H   0  0  0  0  0  0
  1  2  1  0  0  0
  2  3  1  0  0  0
  3  4  1  0  0  0
  4  5  1  0  0  0
  5  6  1  0  0  0
  5  7  1  0  0  0
  7  8  1  0  0  0
  7 39  1  0  0  0
  8  9  1  0  0  0
  8 27  1  0  0  0
  9 10  1  0  0  0
 10 11  1  0  0  0
 10 12  1  0  0  0
 12 13  1  0  0  0
 13 14  1  0  0  0
 13 26  1  0  0  0
 14 15  1  0  0  0
 15 16  1  0  0  0
 16 17  1  0  0  0
 17 18  1  0  0  0
 18 19  1  0  0  0
 18 25  1  0  0  0
 19 20  1  0  0  0
 20 21  1  0  0  0
 20 24  1  0  0  0
 21 22  1  0  0  0
 21 23  1  0  0  0
 23 51  1  0  0  0
 23 52  1  0  0  0
 24 53  1  0  0  0
 25 54  1  0  0  0
 26 55  1  0  0  0
 27 28  1  0  0  0
 28 29  2  0  0  0
 28 30  1  0  0  0
 30 31  1  0  0  0
 31 32  1  0  0  0
 31 36  1  0  0  0
 32 33  1  0  0  0
 33 34  2  0  0  0
 33 35  1  0  0  0
 35 56  1  0  0  0
 36 37  2  0  0  0
 36 38  1  0  0  0
 38 57  1  0  0  0
 39 40  1  0  0  0
 40 41  2  0  0  0
 40 42  1  0  0  0
 42 43  1  0  0  0
 43 44  1  0  0  0
 43 48  1  0  0  0
 44 45  1  0  0  0
 45 46  2  0  0  0
 45 47  1  0  0  0
 47 58  1  0  0  0
 48 49  2  0  0  0
 48 50  1  0  0  0
 50 59  1  0  0  0
M  END
>  <AUTHOR>
    GENERATED BY OPEN BABEL 2.4.1

>  <CHROM.1>
-160.74170670,-131.43400396,-44.48850436,70.30662641,-169.64804809,92.11364753
-141.65115022,-64.06492213,-172.35023638,162.12086181,-41.91484946,59.81184832
75.98418077,43.44333198,130.74074419,-67.19757247,-174.97035301,-71.54387068
169.77309604,-169.36196282,-163.53465901,-59.18336924,-57.61337661,8.48541527
12.08322436,100.73513957,-164.08631189,-130.96219937,98.53825896,9.07416417
-173.66623582,-135.97114627,158.41072807,-36.79802381,-170.69572715,91.73207784
86.31382133,-173.49479929,-37.61807760,13.53100253,-9.50425673,3.68988217
1.42898830,1.12068612,1.48629458

>  <COMPND>
    UNNAMED

>  <MASTER>
        0    0    0    0    0    0    0    0  109    0  109    0

>  <Name>
FB1.pdb

>  <RI>
0

>  <Rbt.Current_Directory>
/home/fc/tossine/FB1_39/p3/1_clust05

>  <Rbt.Executable>
rbdock/0.1.0

>  <Rbt.Library>
librxdock.so/0.1.0

>  <Rbt.Parameter_File>
/cluster/rxdock/data/scripts/dock.prm

>  <Rbt.Receptor>
rx_3.prm

>  <SCORE>
36.1229

>  <SCORE.INTER>
13.7151

>  <SCORE.INTER.CONST>
1

>  <SCORE.INTER.POLAR>
0

>  <SCORE.INTER.REPUL>
0.0699914

>  <SCORE.INTER.ROT>
32

>  <SCORE.INTER.VDW>
-24.0348

>  <SCORE.INTER.norm>
0.274302

>  <SCORE.INTRA>
18.6443

>  <SCORE.INTRA.DIHEDRAL>
24.2793

>  <SCORE.INTRA.DIHEDRAL.0>
47.3121

>  <SCORE.INTRA.POLAR>
0.180006

>  <SCORE.INTRA.POLAR.0>
-1.47808

>  <SCORE.INTRA.REPUL>
0.075514

>  <SCORE.INTRA.REPUL.0>
0

>  <SCORE.INTRA.VDW>
5.51505

>  <SCORE.INTRA.VDW.0>
-2.78316

>  <SCORE.INTRA.norm>
0.372885

>  <SCORE.RESTR>
3.76357

>  <SCORE.RESTR.CAVITY>
3.76357

>  <SCORE.RESTR.norm>
0.0752713

>  <SCORE.SYSTEM>
0

>  <SCORE.SYSTEM.CONST>
0

>  <SCORE.SYSTEM.DIHEDRAL>
0

>  <SCORE.SYSTEM.norm>
0

>  <SCORE.heavy>
50

>  <SCORE.norm>
0.722459

$$$$
