FB1.pdb
  RxDock  10072008123D
librxdock.so/0.1.0
 59 58  0  0  0  0  0  0  0  0999 V2000
   12.3475  -13.8761    9.2807 C   0  0  0  0  0  0
   11.1015  -13.8561    8.3985 C   0  0  0  0  0  0
   11.2995  -14.6789    7.1147 C   0  0  0  0  0  0
   12.6799  -14.4589    6.4470 C   0  0  0  0  0  0
   12.8835  -15.2106    5.0854 C   0  0  0  0  0  0
   12.5320  -16.7014    5.2965 C   0  0  0  0  0  0
   12.0430  -14.5933    3.8894 C   0  0  0  0  0  0
   12.7820  -13.5146    2.9640 C   0  0  0  0  0  0
   12.7016  -13.4624    1.3768 C   0  0  0  0  0  0
   12.6378  -11.9465    0.7292 C   0  0  0  0  0  0
   11.2656  -11.3469    1.0322 C   0  0  0  0  0  0
   13.7788  -10.9339    1.1959 C   0  0  0  0  0  0
   15.3637  -11.2086    1.0193 C   0  0  0  0  0  0
   15.9717  -11.8040   -0.2968 C   0  0  0  0  0  0
   15.4783  -11.2112   -1.6948 C   0  0  0  0  0  0
   14.0304  -11.4239   -2.2889 C   0  0  0  0  0  0
   13.7040  -12.7312   -3.0581 C   0  0  0  0  0  0
   14.2711  -12.8465   -4.5259 C   0  0  0  0  0  0
   15.7983  -12.8835   -4.6632 C   0  0  0  0  0  0
   16.4763  -11.8723   -5.6306 C   0  0  0  0  0  0
   16.7014  -12.2383   -7.1276 C   0  0  0  0  0  0
   16.4744  -13.6940   -7.5106 C   0  0  0  0  0  0
   15.9378  -11.3356   -8.0098 N   0  0  0  0  0  0
   15.5828  -10.7299   -5.6537 O   0  0  0  0  0  0
   13.7325  -14.0348   -5.1154 O   0  0  0  0  0  0
   15.9811   -9.9188    1.1677 O   0  0  0  0  0  0
   12.2982  -12.2126    3.3918 O   0  0  0  0  0  0
   13.0360  -11.5564    4.3248 C   0  0  0  0  0  0
   13.9665  -12.0156    4.9593 O   0  0  0  0  0  0
   12.5767  -10.1253    4.3745 C   0  0  0  0  0  0
   13.4168   -9.2688    5.3353 C   0  0  0  0  0  0
   13.7813  -10.0160    6.6245 C   0  0  0  0  0  0
   14.2048   -9.0547    7.7106 C   0  0  0  0  0  0
   14.5758   -7.9063    7.4931 O   0  0  0  0  0  0
   14.1351   -9.5773    8.9438 O   0  0  0  0  0  0
   14.6915   -8.8979    4.5649 C   0  0  0  0  0  0
   15.0196   -9.4375    3.5191 O   0  0  0  0  0  0
   15.4455   -7.9637    5.1604 O   0  0  0  0  0  0
   11.3910  -15.6574    3.0879 O   0  0  0  0  0  0
   10.2078  -16.2039    3.5563 C   0  0  0  0  0  0
    9.9207  -16.3331    4.7392 O   0  0  0  0  0  0
    9.2748  -16.6386    2.4184 C   0  0  0  0  0  0
    9.3934  -18.1307    1.9779 C   0  0  0  0  0  0
   10.5267  -18.5105    1.0074 C   0  0  0  0  0  0
   11.8793  -18.0629    1.4813 C   0  0  0  0  0  0
   12.2481  -18.0178    2.6469 O   0  0  0  0  0  0
   12.6899  -17.7191    0.4689 O   0  0  0  0  0  0
    9.4323  -19.1362    3.1354 C   0  0  0  0  0  0
   10.2474  -20.0350    3.2021 O   0  0  0  0  0  0
    8.5646  -18.8962    4.1407 O   0  0  0  0  0  0
   16.2098  -10.3724   -7.8184 H   0  0  0  0  0  0
   14.9495  -11.3863   -7.7525 H   0  0  0  0  0  0
   14.7196  -11.0977   -5.9381 H   0  0  0  0  0  0
   13.9736  -14.0419   -6.0601 H   0  0  0  0  0  0
   16.9384  -10.0533    1.2669 H   0  0  0  0  0  0
   14.3486   -8.9608    9.6703 H   0  0  0  0  0  0
   15.0264   -7.5408    5.9505 H   0  0  0  0  0  0
   12.2490  -18.0120   -0.3564 H   0  0  0  0  0  0
    8.6336  -19.5053    4.9091 H   0  0  0  0  0  0
  1  2  1  0  0  0
  2  3  1  0  0  0
  3  4  1  0  0  0
  4  5  1  0  0  0
  5  6  1  0  0  0
  5  7  1  0  0  0
  7  8  1  0  0  0
  7 39  1  0  0  0
  8  9  1  0  0  0
  8 27  1  0  0  0
  9 10  1  0  0  0
 10 11  1  0  0  0
 10 12  1  0  0  0
 12 13  1  0  0  0
 13 14  1  0  0  0
 13 26  1  0  0  0
 14 15  1  0  0  0
 15 16  1  0  0  0
 16 17  1  0  0  0
 17 18  1  0  0  0
 18 19  1  0  0  0
 18 25  1  0  0  0
 19 20  1  0  0  0
 20 21  1  0  0  0
 20 24  1  0  0  0
 21 22  1  0  0  0
 21 23  1  0  0  0
 23 51  1  0  0  0
 23 52  1  0  0  0
 24 53  1  0  0  0
 25 54  1  0  0  0
 26 55  1  0  0  0
 27 28  1  0  0  0
 28 29  2  0  0  0
 28 30  1  0  0  0
 30 31  1  0  0  0
 31 32  1  0  0  0
 31 36  1  0  0  0
 32 33  1  0  0  0
 33 34  2  0  0  0
 33 35  1  0  0  0
 35 56  1  0  0  0
 36 37  2  0  0  0
 36 38  1  0  0  0
 38 57  1  0  0  0
 39 40  1  0  0  0
 40 41  2  0  0  0
 40 42  1  0  0  0
 42 43  1  0  0  0
 43 44  1  0  0  0
 43 48  1  0  0  0
 44 45  1  0  0  0
 45 46  2  0  0  0
 45 47  1  0  0  0
 47 58  1  0  0  0
 48 49  2  0  0  0
 48 50  1  0  0  0
 50 59  1  0  0  0
M  END
>  <AUTHOR>
    GENERATED BY OPEN BABEL 2.4.1

>  <CHROM.1>
-42.91985295,-176.23779386,-51.92907936,94.06132150,136.76761386,81.04725736
142.00337589,93.48972756,-71.37618521,57.59891509,43.13685990,45.11927532
167.63732340,-69.44828966,-82.73490348,-75.86222339,64.69175438,-127.26219150
171.81701286,-89.60062408,-11.24068404,-56.91441102,56.99267328,-9.81121943
-176.06338298,-39.73134143,-161.89408072,-13.12978854,-19.39449542,-176.27627780
-8.20738875,-31.90529132,93.55786242,-81.74062621,52.98152781,-132.61251660
34.59189026,-10.75150397,-175.97806747,13.14729417,-13.26654251,1.94204569
-2.18349791,-1.05036920,-1.98218005

>  <COMPND>
    UNNAMED

>  <MASTER>
        0    0    0    0    0    0    0    0  109    0  109    0

>  <Name>
FB1.pdb

>  <RI>
0

>  <Rbt.Current_Directory>
/home/fc/tossine/FB1_39/p3/1_clust05

>  <Rbt.Executable>
rbdock/0.1.0

>  <Rbt.Library>
librxdock.so/0.1.0

>  <Rbt.Parameter_File>
/cluster/rxdock/data/scripts/dock.prm

>  <Rbt.Receptor>
rx_1.prm

>  <SCORE>
37.2255

>  <SCORE.INTER>
11.9832

>  <SCORE.INTER.CONST>
1

>  <SCORE.INTER.POLAR>
-1.93817

>  <SCORE.INTER.REPUL>
1.08406

>  <SCORE.INTER.ROT>
32

>  <SCORE.INTER.VDW>
-24.2473

>  <SCORE.INTER.norm>
0.239665

>  <SCORE.INTRA>
22.8388

>  <SCORE.INTRA.DIHEDRAL>
14.8581

>  <SCORE.INTRA.DIHEDRAL.0>
47.3121

>  <SCORE.INTRA.POLAR>
0.770991

>  <SCORE.INTRA.POLAR.0>
-1.47808

>  <SCORE.INTRA.REPUL>
0

>  <SCORE.INTRA.REPUL.0>
0

>  <SCORE.INTRA.VDW>
12.7884

>  <SCORE.INTRA.VDW.0>
-2.78316

>  <SCORE.INTRA.norm>
0.456776

>  <SCORE.RESTR>
2.40348

>  <SCORE.RESTR.CAVITY>
2.40348

>  <SCORE.RESTR.norm>
0.0480696

>  <SCORE.SYSTEM>
0

>  <SCORE.SYSTEM.CONST>
0

>  <SCORE.SYSTEM.DIHEDRAL>
0

>  <SCORE.SYSTEM.norm>
0

>  <SCORE.heavy>
50

>  <SCORE.norm>
0.744511

$$$$
