FB1.pdb
  RxDock  09122023503D
librxdock.so/0.1.0
 59 58  0  0  0  0  0  0  0  0999 V2000
   13.6448   -8.7908    6.1304 C   0  0  0  0  0  0
   14.0181   -9.5079    4.8351 C   0  0  0  0  0  0
   12.7903  -10.1427    4.1614 C   0  0  0  0  0  0
   12.8298  -10.0732    2.6144 C   0  0  0  0  0  0
   13.3996  -11.3531    1.9090 C   0  0  0  0  0  0
   14.5855  -11.8826    2.7480 C   0  0  0  0  0  0
   12.3136  -12.4876    1.6823 C   0  0  0  0  0  0
   11.1254  -12.1608    0.6588 C   0  0  0  0  0  0
    9.6611  -11.7006    1.0736 C   0  0  0  0  0  0
    8.5488  -12.9146    1.1752 C   0  0  0  0  0  0
    8.8835  -13.7788    2.3898 C   0  0  0  0  0  0
    7.0202  -12.4637    1.2444 C   0  0  0  0  0  0
    5.7711  -13.4921    1.2764 C   0  0  0  0  0  0
    4.2816  -13.0058    1.2473 C   0  0  0  0  0  0
    3.5570  -12.7017    2.6372 C   0  0  0  0  0  0
    2.1527  -11.9912    2.7704 C   0  0  0  0  0  0
    1.7473  -10.9003    1.7442 C   0  0  0  0  0  0
    2.2437   -9.4325    2.0417 C   0  0  0  0  0  0
    3.7557   -9.1938    1.9441 C   0  0  0  0  0  0
    4.2614   -7.7348    1.7606 C   0  0  0  0  0  0
    3.9444   -6.9454    0.4561 C   0  0  0  0  0  0
    4.2278   -5.4500    0.4832 C   0  0  0  0  0  0
    4.5828   -7.5821   -0.7116 N   0  0  0  0  0  0
    3.6135   -6.9851    2.8199 O   0  0  0  0  0  0
    1.5840   -8.5495    1.1281 O   0  0  0  0  0  0
    5.9258  -14.2981    0.0961 O   0  0  0  0  0  0
   11.6097  -11.0910   -0.1977 O   0  0  0  0  0  0
   11.8224  -11.3954   -1.5044 C   0  0  0  0  0  0
   11.2188  -12.2254   -2.1572 O   0  0  0  0  0  0
   12.8674  -10.4600   -2.0470 C   0  0  0  0  0  0
   13.5646  -11.0160   -3.2989 C   0  0  0  0  0  0
   14.1237   -9.9090   -4.2019 C   0  0  0  0  0  0
   13.0493   -8.9133   -4.5726 C   0  0  0  0  0  0
   12.4683   -8.9130   -5.6525 O   0  0  0  0  0  0
   12.7869   -8.0245   -3.6031 O   0  0  0  0  0  0
   14.7075  -11.9031   -2.7864 C   0  0  0  0  0  0
   14.7858  -13.0975   -3.0310 O   0  0  0  0  0  0
   15.5913  -11.2691   -2.0036 O   0  0  0  0  0  0
   12.9554  -13.7921    1.3883 O   0  0  0  0  0  0
   12.7952  -14.8251    2.2967 C   0  0  0  0  0  0
   13.7138  -15.4583    2.8002 O   0  0  0  0  0  0
   11.3194  -15.0995    2.6144 C   0  0  0  0  0  0
   11.0449  -16.2969    3.5765 C   0  0  0  0  0  0
   11.0167  -16.0168    5.0901 C   0  0  0  0  0  0
   12.3874  -15.9410    5.6983 C   0  0  0  0  0  0
   13.0833  -14.9372    5.7663 O   0  0  0  0  0  0
   12.7925  -17.1181    6.1991 O   0  0  0  0  0  0
    9.7867  -17.1078    3.2424 C   0  0  0  0  0  0
    9.5231  -18.1674    3.7759 O   0  0  0  0  0  0
    8.9259  -16.5160    2.3880 O   0  0  0  0  0  0
    3.8595   -7.9421   -1.3328 H   0  0  0  0  0  0
    5.0931   -8.4093   -0.3943 H   0  0  0  0  0  0
    4.0006   -7.3420    3.6470 H   0  0  0  0  0  0
    1.9027   -8.7488    0.2286 H   0  0  0  0  0  0
    5.2409  -14.9875    0.1109 H   0  0  0  0  0  0
   11.8405   -7.8323   -3.4590 H   0  0  0  0  0  0
   16.3732  -11.8158   -1.7416 H   0  0  0  0  0  0
   13.5738  -16.9308    6.7610 H   0  0  0  0  0  0
    8.0191  -16.8953    2.3759 H   0  0  0  0  0  0
  1  2  1  0  0  0
  2  3  1  0  0  0
  3  4  1  0  0  0
  4  5  1  0  0  0
  5  6  1  0  0  0
  5  7  1  0  0  0
  7  8  1  0  0  0
  7 39  1  0  0  0
  8  9  1  0  0  0
  8 27  1  0  0  0
  9 10  1  0  0  0
 10 11  1  0  0  0
 10 12  1  0  0  0
 12 13  1  0  0  0
 13 14  1  0  0  0
 13 26  1  0  0  0
 14 15  1  0  0  0
 15 16  1  0  0  0
 16 17  1  0  0  0
 17 18  1  0  0  0
 18 19  1  0  0  0
 18 25  1  0  0  0
 19 20  1  0  0  0
 20 21  1  0  0  0
 20 24  1  0  0  0
 21 22  1  0  0  0
 21 23  1  0  0  0
 23 51  1  0  0  0
 23 52  1  0  0  0
 24 53  1  0  0  0
 25 54  1  0  0  0
 26 55  1  0  0  0
 27 28  1  0  0  0
 28 29  2  0  0  0
 28 30  1  0  0  0
 30 31  1  0  0  0
 31 32  1  0  0  0
 31 36  1  0  0  0
 32 33  1  0  0  0
 33 34  2  0  0  0
 33 35  1  0  0  0
 35 56  1  0  0  0
 36 37  2  0  0  0
 36 38  1  0  0  0
 38 57  1  0  0  0
 39 40  1  0  0  0
 40 41  2  0  0  0
 40 42  1  0  0  0
 42 43  1  0  0  0
 43 44  1  0  0  0
 43 48  1  0  0  0
 44 45  1  0  0  0
 45 46  2  0  0  0
 45 47  1  0  0  0
 47 58  1  0  0  0
 48 49  2  0  0  0
 48 50  1  0  0  0
 50 59  1  0  0  0
M  END
>  <AUTHOR>
    GENERATED BY OPEN BABEL 2.4.1

>  <CHROM.1>
143.49157142,95.22232655,-38.88209150,66.23862687,-99.90472002,115.02447105
-95.15687123,112.38517133,70.07319238,176.97043642,-175.78697874,-89.39841101
174.99323058,169.76553984,-33.40957790,-85.15831079,67.71464694,160.24587318
-66.69079517,-65.91616574,167.84915384,66.29857436,114.01497990,30.35574053
158.34125166,154.12287232,-54.55706255,119.42657100,-100.85271277,-137.61531787
-174.54730761,-126.22320070,177.05928520,88.89512797,-80.56971844,170.04846616
87.36935769,-166.18852477,-162.80048164,9.75626201,-11.89655957,1.19709771
0.21782405,-0.26186404,2.36877995

>  <COMPND>
    UNNAMED

>  <MASTER>
        0    0    0    0    0    0    0    0  109    0  109    0

>  <Name>
FB1.pdb

>  <RI>
0

>  <Rbt.Current_Directory>
/home/fc/tossine/FB1_39/p3/1_clust05

>  <Rbt.Executable>
rbdock/0.1.0

>  <Rbt.Library>
librxdock.so/0.1.0

>  <Rbt.Parameter_File>
/cluster/rxdock/data/scripts/dock.prm

>  <Rbt.Receptor>
rx_0.prm

>  <SCORE>
122.102

>  <SCORE.INTER>
87.2216

>  <SCORE.INTER.CONST>
1

>  <SCORE.INTER.POLAR>
-2.16011

>  <SCORE.INTER.REPUL>
0.83574

>  <SCORE.INTER.ROT>
32

>  <SCORE.INTER.VDW>
52.9873

>  <SCORE.INTER.norm>
1.74443

>  <SCORE.INTRA>
34.4169

>  <SCORE.INTRA.DIHEDRAL>
47.8382

>  <SCORE.INTRA.DIHEDRAL.0>
47.3121

>  <SCORE.INTRA.POLAR>
1.47808

>  <SCORE.INTRA.POLAR.0>
-1.47808

>  <SCORE.INTRA.REPUL>
0

>  <SCORE.INTRA.REPUL.0>
0

>  <SCORE.INTRA.VDW>
5.47232

>  <SCORE.INTRA.VDW.0>
-2.78316

>  <SCORE.INTRA.norm>
0.688338

>  <SCORE.RESTR>
0.463857

>  <SCORE.RESTR.CAVITY>
0.463857

>  <SCORE.RESTR.norm>
0.00927714

>  <SCORE.SYSTEM>
0

>  <SCORE.SYSTEM.CONST>
0

>  <SCORE.SYSTEM.DIHEDRAL>
0

>  <SCORE.SYSTEM.norm>
0

>  <SCORE.heavy>
50

>  <SCORE.norm>
2.44205

$$$$
