FB1.pdb
  RxDock  10072008453D
librxdock.so/0.1.0
 59 58  0  0  0  0  0  0  0  0999 V2000
   -0.7315  -10.6621   -1.0044 C   0  0  0  0  0  0
    0.2370  -11.1302   -2.0880 C   0  0  0  0  0  0
    1.4169  -11.9182   -1.4953 C   0  0  0  0  0  0
    2.6466  -11.0352   -1.1670 C   0  0  0  0  0  0
    2.6709  -10.4494    0.2879 C   0  0  0  0  0  0
    4.1458  -10.2443    0.7041 C   0  0  0  0  0  0
    1.8452   -9.1033    0.4425 C   0  0  0  0  0  0
    1.2063   -8.8050    1.8809 C   0  0  0  0  0  0
    2.0006   -8.8307    3.2581 C   0  0  0  0  0  0
    1.6366  -10.0962    4.2519 C   0  0  0  0  0  0
    0.7488   -9.5835    5.3847 C   0  0  0  0  0  0
    0.9465  -11.3573    3.5604 C   0  0  0  0  0  0
    1.7610  -12.5591    2.8457 C   0  0  0  0  0  0
    2.5663  -13.6290    3.6600 C   0  0  0  0  0  0
    3.1270  -13.2215    5.0983 C   0  0  0  0  0  0
    4.0774  -14.1315    5.9720 C   0  0  0  0  0  0
    5.4902  -14.4921    5.4418 C   0  0  0  0  0  0
    5.5800  -15.7138    4.4474 C   0  0  0  0  0  0
    4.5858  -15.7136    3.2795 C   0  0  0  0  0  0
    5.1458  -15.8421    1.8345 C   0  0  0  0  0  0
    4.3235  -16.5679    0.7287 C   0  0  0  0  0  0
    3.0692  -15.8568    0.2405 C   0  0  0  0  0  0
    5.1882  -16.9493   -0.4041 N   0  0  0  0  0  0
    5.2772  -14.4750    1.3682 O   0  0  0  0  0  0
    6.9081  -15.7526    3.9141 O   0  0  0  0  0  0
    0.7639  -13.3060    2.1284 O   0  0  0  0  0  0
    0.6534   -7.4627    1.8095 O   0  0  0  0  0  0
    0.4339   -6.8225    2.9873 C   0  0  0  0  0  0
   -0.1269   -7.2837    3.9632 O   0  0  0  0  0  0
    1.0922   -5.4719    2.9249 C   0  0  0  0  0  0
    1.5958   -5.1253    1.5147 C   0  0  0  0  0  0
    1.0125   -3.8075    0.9887 C   0  0  0  0  0  0
    1.3503   -3.6057   -0.4702 C   0  0  0  0  0  0
    2.4876   -3.4032   -0.8815 O   0  0  0  0  0  0
    0.2829   -3.6710   -1.2797 O   0  0  0  0  0  0
    3.1227   -5.0161    1.6270 C   0  0  0  0  0  0
    3.8901   -5.7486    1.0213 O   0  0  0  0  0  0
    3.5485   -4.0796    2.4858 O   0  0  0  0  0  0
    2.6106   -7.9432   -0.0755 O   0  0  0  0  0  0
    2.3437   -7.4978   -1.3594 C   0  0  0  0  0  0
    2.9608   -6.6078   -1.9300 O   0  0  0  0  0  0
    1.1729   -8.2492   -2.0065 C   0  0  0  0  0  0
    0.4195   -7.4837   -3.1383 C   0  0  0  0  0  0
   -0.0140   -8.2779   -4.3840 C   0  0  0  0  0  0
   -1.4370   -8.7517   -4.3118 C   0  0  0  0  0  0
   -1.8127   -9.8107   -3.8283 O   0  0  0  0  0  0
   -2.3001   -7.8646   -4.8299 O   0  0  0  0  0  0
   -0.8000   -6.6834   -2.6644 C   0  0  0  0  0  0
   -1.6853   -7.1679   -1.9875 O   0  0  0  0  0  0
   -0.7784   -5.3664   -2.9580 O   0  0  0  0  0  0
    5.5219  -17.9019   -0.2637 H   0  0  0  0  0  0
    6.0301  -16.3693   -0.3822 H   0  0  0  0  0  0
    6.0397  -14.4966    0.7521 H   0  0  0  0  0  0
    7.5224  -15.9591    4.6424 H   0  0  0  0  0  0
    0.3284  -13.9065    2.7564 H   0  0  0  0  0  0
    0.4758   -3.5743   -2.2321 H   0  0  0  0  0  0
    4.5308   -4.0413    2.5970 H   0  0  0  0  0  0
   -3.1923   -8.2643   -4.7563 H   0  0  0  0  0  0
   -1.5035   -4.8356   -2.5597 H   0  0  0  0  0  0
  1  2  1  0  0  0
  2  3  1  0  0  0
  3  4  1  0  0  0
  4  5  1  0  0  0
  5  6  1  0  0  0
  5  7  1  0  0  0
  7  8  1  0  0  0
  7 39  1  0  0  0
  8  9  1  0  0  0
  8 27  1  0  0  0
  9 10  1  0  0  0
 10 11  1  0  0  0
 10 12  1  0  0  0
 12 13  1  0  0  0
 13 14  1  0  0  0
 13 26  1  0  0  0
 14 15  1  0  0  0
 15 16  1  0  0  0
 16 17  1  0  0  0
 17 18  1  0  0  0
 18 19  1  0  0  0
 18 25  1  0  0  0
 19 20  1  0  0  0
 20 21  1  0  0  0
 20 24  1  0  0  0
 21 22  1  0  0  0
 21 23  1  0  0  0
 23 51  1  0  0  0
 23 52  1  0  0  0
 24 53  1  0  0  0
 25 54  1  0  0  0
 26 55  1  0  0  0
 27 28  1  0  0  0
 28 29  2  0  0  0
 28 30  1  0  0  0
 30 31  1  0  0  0
 31 32  1  0  0  0
 31 36  1  0  0  0
 32 33  1  0  0  0
 33 34  2  0  0  0
 33 35  1  0  0  0
 35 56  1  0  0  0
 36 37  2  0  0  0
 36 38  1  0  0  0
 38 57  1  0  0  0
 39 40  1  0  0  0
 40 41  2  0  0  0
 40 42  1  0  0  0
 42 43  1  0  0  0
 43 44  1  0  0  0
 43 48  1  0  0  0
 44 45  1  0  0  0
 45 46  2  0  0  0
 45 47  1  0  0  0
 47 58  1  0  0  0
 48 49  2  0  0  0
 48 50  1  0  0  0
 50 59  1  0  0  0
M  END
>  <AUTHOR>
    GENERATED BY OPEN BABEL 2.4.1

>  <CHROM.1>
-92.06499040,90.68373198,151.62979302,151.06726014,51.88584001,97.77718923
-109.07566074,-159.99504119,-104.28398199,85.78320027,72.64529435,-26.52396251
-81.76959256,-173.43922817,63.17142060,-83.45704746,48.80912893,125.65301732
66.02809588,147.82971143,70.02722698,148.93483089,93.12743603,-47.77572590
9.52808583,123.60888918,-171.04203279,117.78261197,-67.66332709,-178.00973917
176.79982092,-175.25567455,155.50484512,139.50420875,95.95767100,-51.63968777
-88.88494237,178.85793982,-172.79903372,1.93555664,-9.68483968,0.73019130
2.52781617,-1.11054768,0.46263847

>  <COMPND>
    UNNAMED

>  <MASTER>
        0    0    0    0    0    0    0    0  109    0  109    0

>  <Name>
FB1.pdb

>  <RI>
0

>  <Rbt.Current_Directory>
/home/fc/tossine/FB1_39/p3/1_clust05

>  <Rbt.Executable>
rbdock/0.1.0

>  <Rbt.Library>
librxdock.so/0.1.0

>  <Rbt.Parameter_File>
/cluster/rxdock/data/scripts/dock.prm

>  <Rbt.Receptor>
rx_2.prm

>  <SCORE>
41.7763

>  <SCORE.INTER>
6.22258

>  <SCORE.INTER.CONST>
1

>  <SCORE.INTER.POLAR>
-3.94836

>  <SCORE.INTER.REPUL>
0.807081

>  <SCORE.INTER.ROT>
32

>  <SCORE.INTER.VDW>
-21.7884

>  <SCORE.INTER.norm>
0.124452

>  <SCORE.INTRA>
32.973

>  <SCORE.INTRA.DIHEDRAL>
48.7346

>  <SCORE.INTRA.DIHEDRAL.0>
47.3121

>  <SCORE.INTRA.POLAR>
1.47808

>  <SCORE.INTRA.POLAR.0>
-1.47808

>  <SCORE.INTRA.REPUL>
0

>  <SCORE.INTRA.REPUL.0>
0

>  <SCORE.INTRA.VDW>
3.58023

>  <SCORE.INTRA.VDW.0>
-2.78316

>  <SCORE.INTRA.norm>
0.65946

>  <SCORE.RESTR>
2.58074

>  <SCORE.RESTR.CAVITY>
2.58074

>  <SCORE.RESTR.norm>
0.0516148

>  <SCORE.SYSTEM>
0

>  <SCORE.SYSTEM.CONST>
0

>  <SCORE.SYSTEM.DIHEDRAL>
0

>  <SCORE.SYSTEM.norm>
0

>  <SCORE.heavy>
50

>  <SCORE.norm>
0.835526

$$$$
