FB1.pdb
  RxDock  10072009503D
librxdock.so/0.1.0
 59 58  0  0  0  0  0  0  0  0999 V2000
    0.4845   -9.1974    5.1526 C   0  0  0  0  0  0
    0.1511  -10.4424    4.3340 C   0  0  0  0  0  0
    1.0425  -10.5592    3.0866 C   0  0  0  0  0  0
    0.2903  -10.2792    1.7617 C   0  0  0  0  0  0
    1.0769  -10.6640    0.4603 C   0  0  0  0  0  0
    0.1697  -10.3764   -0.7583 C   0  0  0  0  0  0
    2.4704   -9.9185    0.3188 C   0  0  0  0  0  0
    2.4314   -8.3202    0.2176 C   0  0  0  0  0  0
    1.1153   -7.4308    0.2873 C   0  0  0  0  0  0
    0.7498   -6.6128   -1.0979 C   0  0  0  0  0  0
    1.9596   -5.7693   -1.4967 C   0  0  0  0  0  0
    0.2856   -7.5023   -2.3381 C   0  0  0  0  0  0
   -1.2557   -7.8738   -2.6622 C   0  0  0  0  0  0
   -2.1352   -7.0271   -3.6448 C   0  0  0  0  0  0
   -1.5560   -6.7109   -5.0987 C   0  0  0  0  0  0
   -2.3825   -6.8600   -6.4363 C   0  0  0  0  0  0
   -3.6696   -6.0172   -6.6379 C   0  0  0  0  0  0
   -4.4805   -6.2744   -7.9665 C   0  0  0  0  0  0
   -5.9106   -5.7217   -8.0074 C   0  0  0  0  0  0
   -6.8322   -6.1471   -9.1856 C   0  0  0  0  0  0
   -7.0251   -7.6523   -9.5357 C   0  0  0  0  0  0
   -7.2275   -7.9850  -11.0074 C   0  0  0  0  0  0
   -5.9436   -8.4699   -8.9541 N   0  0  0  0  0  0
   -8.1516   -5.6773   -8.8084 O   0  0  0  0  0  0
   -3.7415   -5.7047   -9.0524 O   0  0  0  0  0  0
   -1.2049   -9.1883   -3.2419 O   0  0  0  0  0  0
    3.2590   -7.8239    1.3045 O   0  0  0  0  0  0
    3.3286   -6.4764    1.4611 C   0  0  0  0  0  0
    4.2566   -5.7612    1.1346 O   0  0  0  0  0  0
    2.0173   -5.9934    2.0169 C   0  0  0  0  0  0
    2.1547   -5.4123    3.4332 C   0  0  0  0  0  0
    0.8338   -5.4434    4.2128 C   0  0  0  0  0  0
   -0.3358   -5.1071    3.3171 C   0  0  0  0  0  0
   -1.3653   -5.7716    3.2676 O   0  0  0  0  0  0
   -0.1427   -4.0053    2.5771 O   0  0  0  0  0  0
    3.2046   -6.2774    4.1441 C   0  0  0  0  0  0
    4.2119   -5.8155    4.6584 O   0  0  0  0  0  0
    2.9509   -7.5929    4.1121 O   0  0  0  0  0  0
    3.4341  -10.3856    1.3450 O   0  0  0  0  0  0
    3.9420  -11.6695    1.2363 C   0  0  0  0  0  0
    5.0974  -11.9850    1.4890 O   0  0  0  0  0  0
    2.8872  -12.6760    0.7581 C   0  0  0  0  0  0
    3.4419  -14.0105    0.1701 C   0  0  0  0  0  0
    4.5174  -14.7635    0.9743 C   0  0  0  0  0  0
    4.4436  -14.4929    2.4493 C   0  0  0  0  0  0
    3.5423  -13.8950    3.0209 O   0  0  0  0  0  0
    5.4895  -15.0028    3.1176 O   0  0  0  0  0  0
    2.3660  -15.0333   -0.2156 C   0  0  0  0  0  0
    2.4107  -15.6836   -1.2412 O   0  0  0  0  0  0
    1.4107  -15.2475    0.7132 O   0  0  0  0  0  0
   -5.4758   -8.9841   -9.6993 H   0  0  0  0  0  0
   -6.3616   -9.1894   -8.3599 H   0  0  0  0  0  0
   -8.3314   -6.1115   -7.9480 H   0  0  0  0  0  0
   -4.3600   -5.1932   -9.6060 H   0  0  0  0  0  0
   -2.1177   -9.4850   -3.3947 H   0  0  0  0  0  0
   -0.9497   -3.6205    2.1844 H   0  0  0  0  0  0
    2.1208   -7.8389    3.6333 H   0  0  0  0  0  0
    5.4044  -14.7004    4.0464 H   0  0  0  0  0  0
    1.5054  -14.7256    1.5408 H   0  0  0  0  0  0
  1  2  1  0  0  0
  2  3  1  0  0  0
  3  4  1  0  0  0
  4  5  1  0  0  0
  5  6  1  0  0  0
  5  7  1  0  0  0
  7  8  1  0  0  0
  7 39  1  0  0  0
  8  9  1  0  0  0
  8 27  1  0  0  0
  9 10  1  0  0  0
 10 11  1  0  0  0
 10 12  1  0  0  0
 12 13  1  0  0  0
 13 14  1  0  0  0
 13 26  1  0  0  0
 14 15  1  0  0  0
 15 16  1  0  0  0
 16 17  1  0  0  0
 17 18  1  0  0  0
 18 19  1  0  0  0
 18 25  1  0  0  0
 19 20  1  0  0  0
 20 21  1  0  0  0
 20 24  1  0  0  0
 21 22  1  0  0  0
 21 23  1  0  0  0
 23 51  1  0  0  0
 23 52  1  0  0  0
 24 53  1  0  0  0
 25 54  1  0  0  0
 26 55  1  0  0  0
 27 28  1  0  0  0
 28 29  2  0  0  0
 28 30  1  0  0  0
 30 31  1  0  0  0
 31 32  1  0  0  0
 31 36  1  0  0  0
 32 33  1  0  0  0
 33 34  2  0  0  0
 33 35  1  0  0  0
 35 56  1  0  0  0
 36 37  2  0  0  0
 36 38  1  0  0  0
 38 57  1  0  0  0
 39 40  1  0  0  0
 40 41  2  0  0  0
 40 42  1  0  0  0
 42 43  1  0  0  0
 43 44  1  0  0  0
 43 48  1  0  0  0
 44 45  1  0  0  0
 45 46  2  0  0  0
 45 47  1  0  0  0
 47 58  1  0  0  0
 48 49  2  0  0  0
 48 50  1  0  0  0
 50 59  1  0  0  0
M  END
>  <AUTHOR>
    GENERATED BY OPEN BABEL 2.4.1

>  <CHROM.1>
-108.44437076,-168.30538011,177.74164492,-61.87245967,1.73530217,70.16325709
-114.67353281,-177.00363582,-54.98696611,91.39817923,94.00751337,51.47269554
175.86492037,134.13319572,60.67792723,-176.99076252,164.99633191,-169.93351519
-133.53188741,51.91547525,-146.72603519,-57.80833361,-122.81371848,-103.35402602
114.57404673,-156.97381860,-38.96836463,124.34710149,131.39008202,-163.59343932
0.11449341,141.55715677,160.99147636,48.57313989,26.79385546,137.50278528
9.46388556,174.28400113,-0.06684656,0.34032678,-8.82232599,-0.83000832,0.08567913
-0.93202824,0.46486310

>  <COMPND>
    UNNAMED

>  <MASTER>
        0    0    0    0    0    0    0    0  109    0  109    0

>  <Name>
FB1.pdb

>  <RI>
0

>  <Rbt.Current_Directory>
/home/fc/tossine/FB1_39/p3/1_clust05

>  <Rbt.Executable>
rbdock/0.1.0

>  <Rbt.Library>
librxdock.so/0.1.0

>  <Rbt.Parameter_File>
/cluster/rxdock/data/scripts/dock.prm

>  <Rbt.Receptor>
rx_4.prm

>  <SCORE>
68.5029

>  <SCORE.INTER>
9.35943

>  <SCORE.INTER.CONST>
1

>  <SCORE.INTER.POLAR>
-2.91392

>  <SCORE.INTER.REPUL>
0.608055

>  <SCORE.INTER.ROT>
32

>  <SCORE.INTER.VDW>
-21.1735

>  <SCORE.INTER.norm>
0.187189

>  <SCORE.INTRA>
50.749

>  <SCORE.INTRA.DIHEDRAL>
45.8374

>  <SCORE.INTRA.DIHEDRAL.0>
47.3121

>  <SCORE.INTRA.POLAR>
1.47808

>  <SCORE.INTRA.POLAR.0>
-1.47808

>  <SCORE.INTRA.REPUL>
0.0130163

>  <SCORE.INTRA.REPUL.0>
0

>  <SCORE.INTRA.VDW>
22.7398

>  <SCORE.INTRA.VDW.0>
-2.78316

>  <SCORE.INTRA.norm>
1.01498

>  <SCORE.RESTR>
8.39451

>  <SCORE.RESTR.CAVITY>
8.39451

>  <SCORE.RESTR.norm>
0.16789

>  <SCORE.SYSTEM>
0

>  <SCORE.SYSTEM.CONST>
0

>  <SCORE.SYSTEM.DIHEDRAL>
0

>  <SCORE.SYSTEM.norm>
0

>  <SCORE.heavy>
50

>  <SCORE.norm>
1.37006

$$$$
