FB1.pdb
  RxDock  10072009513D
librxdock.so/0.1.0
 59 58  0  0  0  0  0  0  0  0999 V2000
    2.4381   -8.0696   -1.2582 C   0  0  0  0  0  0
    2.8715   -7.5869    0.1240 C   0  0  0  0  0  0
    4.2123   -8.2077    0.5495 C   0  0  0  0  0  0
    4.8367   -7.5339    1.7968 C   0  0  0  0  0  0
    4.1436   -7.8905    3.1580 C   0  0  0  0  0  0
    4.9718   -7.2638    4.3034 C   0  0  0  0  0  0
    2.6272   -7.4297    3.2364 C   0  0  0  0  0  0
    1.5242   -8.5835    3.3714 C   0  0  0  0  0  0
    0.9782   -9.4724    2.1714 C   0  0  0  0  0  0
   -0.0189  -10.7096    2.6146 C   0  0  0  0  0  0
   -0.5027  -11.4192    1.3511 C   0  0  0  0  0  0
    0.5947  -11.7789    3.6270 C   0  0  0  0  0  0
    1.9505  -12.6176    3.3495 C   0  0  0  0  0  0
    2.0332  -13.7463    2.2654 C   0  0  0  0  0  0
    1.9170  -13.3300    0.7283 C   0  0  0  0  0  0
    2.8572  -12.2776    0.0192 C   0  0  0  0  0  0
    2.4909  -11.7561   -1.3955 C   0  0  0  0  0  0
    0.9546  -11.5705   -1.7030 C   0  0  0  0  0  0
    0.5687  -10.3230   -2.5076 C   0  0  0  0  0  0
   -0.9056   -9.8323   -2.4452 C   0  0  0  0  0  0
   -1.4159   -8.7330   -3.4233 C   0  0  0  0  0  0
   -0.5178   -7.5171   -3.6039 C   0  0  0  0  0  0
   -1.7800   -9.3180   -4.7277 N   0  0  0  0  0  0
   -1.6976  -11.0073   -2.7550 O   0  0  0  0  0  0
    0.5036  -12.7281   -2.4146 O   0  0  0  0  0  0
    2.9165  -11.6341    2.9417 O   0  0  0  0  0  0
    2.0583   -9.5474    4.3191 O   0  0  0  0  0  0
    2.0280   -9.2028    5.6327 C   0  0  0  0  0  0
    1.9758   -8.0724    6.0789 O   0  0  0  0  0  0
    1.9667  -10.4612    6.4536 C   0  0  0  0  0  0
    2.3631  -10.2291    7.9204 C   0  0  0  0  0  0
    1.4480   -9.2193    8.6248 C   0  0  0  0  0  0
    2.0305   -8.7883    9.9508 C   0  0  0  0  0  0
    1.7697   -9.3360   11.0165 O   0  0  0  0  0  0
    2.8668   -7.7443    9.8529 O   0  0  0  0  0  0
    2.2612  -11.5983    8.6067 C   0  0  0  0  0  0
    1.6302  -11.7829    9.6364 O   0  0  0  0  0  0
    2.9643  -12.5701    8.0092 O   0  0  0  0  0  0
    2.4429   -6.3651    4.2524 O   0  0  0  0  0  0
    1.3007   -5.5844    4.1894 C   0  0  0  0  0  0
    1.0161   -4.7010    4.9875 O   0  0  0  0  0  0
    0.4113   -5.9467    2.9927 C   0  0  0  0  0  0
    0.7655   -5.2407    1.6471 C   0  0  0  0  0  0
    0.0063   -5.6756    0.3803 C   0  0  0  0  0  0
    0.7094   -5.2858   -0.8878 C   0  0  0  0  0  0
    1.8994   -5.0217   -0.9917 O   0  0  0  0  0  0
   -0.1140   -5.2698   -1.9471 O   0  0  0  0  0  0
    0.7192   -3.7086    1.6994 C   0  0  0  0  0  0
   -0.0018   -3.0954    2.4616 O   0  0  0  0  0  0
    1.6147   -3.0747    0.9136 O   0  0  0  0  0  0
   -0.9306   -9.5055   -5.2586 H   0  0  0  0  0  0
   -2.2815   -8.6134   -5.2732 H   0  0  0  0  0  0
   -1.7309  -11.5109   -1.9144 H   0  0  0  0  0  0
    0.4976  -13.4819   -1.7964 H   0  0  0  0  0  0
    3.8030  -12.0051    3.0869 H   0  0  0  0  0  0
    3.2537   -7.4399   10.6962 H   0  0  0  0  0  0
    3.6298  -12.2495    7.3511 H   0  0  0  0  0  0
   -0.2518   -4.3279   -2.1821 H   0  0  0  0  0  0
    1.7984   -3.5095    0.0514 H   0  0  0  0  0  0
  1  2  1  0  0  0
  2  3  1  0  0  0
  3  4  1  0  0  0
  4  5  1  0  0  0
  5  6  1  0  0  0
  5  7  1  0  0  0
  7  8  1  0  0  0
  7 39  1  0  0  0
  8  9  1  0  0  0
  8 27  1  0  0  0
  9 10  1  0  0  0
 10 11  1  0  0  0
 10 12  1  0  0  0
 12 13  1  0  0  0
 13 14  1  0  0  0
 13 26  1  0  0  0
 14 15  1  0  0  0
 15 16  1  0  0  0
 16 17  1  0  0  0
 17 18  1  0  0  0
 18 19  1  0  0  0
 18 25  1  0  0  0
 19 20  1  0  0  0
 20 21  1  0  0  0
 20 24  1  0  0  0
 21 22  1  0  0  0
 21 23  1  0  0  0
 23 51  1  0  0  0
 23 52  1  0  0  0
 24 53  1  0  0  0
 25 54  1  0  0  0
 26 55  1  0  0  0
 27 28  1  0  0  0
 28 29  2  0  0  0
 28 30  1  0  0  0
 30 31  1  0  0  0
 31 32  1  0  0  0
 31 36  1  0  0  0
 32 33  1  0  0  0
 33 34  2  0  0  0
 33 35  1  0  0  0
 35 56  1  0  0  0
 36 37  2  0  0  0
 36 38  1  0  0  0
 38 57  1  0  0  0
 39 40  1  0  0  0
 40 41  2  0  0  0
 40 42  1  0  0  0
 42 43  1  0  0  0
 43 44  1  0  0  0
 43 48  1  0  0  0
 44 45  1  0  0  0
 45 46  2  0  0  0
 45 47  1  0  0  0
 47 58  1  0  0  0
 48 49  2  0  0  0
 48 50  1  0  0  0
 50 59  1  0  0  0
M  END
>  <AUTHOR>
    GENERATED BY OPEN BABEL 2.4.1

>  <CHROM.1>
167.97368331,74.54905905,174.08108223,116.15900727,-79.55725755,161.49609325
172.91250313,75.59477127,177.42856230,-56.42502622,-70.20892424,67.42361547
158.81671061,56.20845986,-168.63870399,35.43705070,139.85438706,-160.14483401
70.28202553,-169.27414845,-45.75447038,80.20942561,-77.40285239,-22.97455370
162.17877287,60.23982519,-167.69294856,-128.21016226,-92.38678722,179.58468610
14.58349629,177.94740470,-86.00004440,173.61248396,-161.05735200,-28.14903938
20.86971820,108.19389730,35.99736781,1.48879020,-8.79061983,2.48801850,-3.09534239
1.37258883,-3.08447673

>  <COMPND>
    UNNAMED

>  <MASTER>
        0    0    0    0    0    0    0    0  109    0  109    0

>  <Name>
FB1.pdb

>  <RI>
0

>  <Rbt.Current_Directory>
/home/fc/tossine/FB1_39/p3/1_clust05

>  <Rbt.Executable>
rbdock/0.1.0

>  <Rbt.Library>
librxdock.so/0.1.0

>  <Rbt.Parameter_File>
/cluster/rxdock/data/scripts/dock.prm

>  <Rbt.Receptor>
rx_4.prm

>  <SCORE>
32.6783

>  <SCORE.INTER>
10.8155

>  <SCORE.INTER.CONST>
1

>  <SCORE.INTER.POLAR>
-0.486

>  <SCORE.INTER.REPUL>
0

>  <SCORE.INTER.ROT>
32

>  <SCORE.INTER.VDW>
-24.9321

>  <SCORE.INTER.norm>
0.21631

>  <SCORE.INTRA>
18.4535

>  <SCORE.INTRA.DIHEDRAL>
25.7746

>  <SCORE.INTRA.DIHEDRAL.0>
47.3121

>  <SCORE.INTRA.POLAR>
1.47808

>  <SCORE.INTRA.POLAR.0>
-1.47808

>  <SCORE.INTRA.REPUL>
0.0342036

>  <SCORE.INTRA.REPUL.0>
0

>  <SCORE.INTRA.VDW>
0.369702

>  <SCORE.INTRA.VDW.0>
-2.78316

>  <SCORE.INTRA.norm>
0.36907

>  <SCORE.RESTR>
3.40934

>  <SCORE.RESTR.CAVITY>
3.40934

>  <SCORE.RESTR.norm>
0.0681868

>  <SCORE.SYSTEM>
0

>  <SCORE.SYSTEM.CONST>
0

>  <SCORE.SYSTEM.DIHEDRAL>
0

>  <SCORE.SYSTEM.norm>
0

>  <SCORE.heavy>
50

>  <SCORE.norm>
0.653566

$$$$
