FB1.pdb
  RxDock  10072008133D
librxdock.so/0.1.0
 59 58  0  0  0  0  0  0  0  0999 V2000
   -1.1403   -6.1989    4.3899 C   0  0  0  0  0  0
   -1.8521   -5.6729    3.1456 C   0  0  0  0  0  0
   -0.8761   -5.4678    1.9753 C   0  0  0  0  0  0
    0.1621   -4.3459    2.2264 C   0  0  0  0  0  0
    1.3347   -4.2847    1.1863 C   0  0  0  0  0  0
    2.2640   -3.1103    1.5708 C   0  0  0  0  0  0
    2.1512   -5.6405    1.0721 C   0  0  0  0  0  0
    2.8091   -6.2070    2.4184 C   0  0  0  0  0  0
    2.0063   -6.6064    3.7315 C   0  0  0  0  0  0
    2.4472   -8.0436    4.4108 C   0  0  0  0  0  0
    1.7792   -8.1580    5.7801 C   0  0  0  0  0  0
    2.1356   -9.3518    3.5528 C   0  0  0  0  0  0
    0.8633  -10.3199    3.8033 C   0  0  0  0  0  0
    0.0326  -10.9369    2.6263 C   0  0  0  0  0  0
    0.7572  -11.9700    1.6481 C   0  0  0  0  0  0
    1.0812  -13.4700    2.0217 C   0  0  0  0  0  0
    2.5579  -13.9123    2.1976 C   0  0  0  0  0  0
    3.3544  -14.2529    0.8790 C   0  0  0  0  0  0
    3.8085  -15.7088    0.7165 C   0  0  0  0  0  0
    4.8790  -16.2614    1.6999 C   0  0  0  0  0  0
    5.6256  -17.5927    1.3906 C   0  0  0  0  0  0
    5.9338  -17.8722   -0.0737 C   0  0  0  0  0  0
    6.8401  -17.7187    2.2185 N   0  0  0  0  0  0
    5.9151  -15.2466    1.7236 O   0  0  0  0  0  0
    2.5281  -13.9069   -0.2379 O   0  0  0  0  0  0
    1.3926  -11.4476    4.5206 O   0  0  0  0  0  0
    3.5160   -7.4210    2.0456 O   0  0  0  0  0  0
    4.8254   -7.2932    1.7072 C   0  0  0  0  0  0
    5.7767   -7.4107    2.4559 O   0  0  0  0  0  0
    4.9144   -7.0806    0.2212 C   0  0  0  0  0  0
    3.6285   -7.4940   -0.5124 C   0  0  0  0  0  0
    3.7065   -7.2432   -2.0238 C   0  0  0  0  0  0
    3.8018   -5.7660   -2.3270 C   0  0  0  0  0  0
    4.1253   -4.9228   -1.4975 O   0  0  0  0  0  0
    3.4993   -5.4607   -3.5975 O   0  0  0  0  0  0
    3.4494   -8.9934   -0.2373 C   0  0  0  0  0  0
    4.3415   -9.8123   -0.3986 O   0  0  0  0  0  0
    2.2142   -9.3411    0.1492 O   0  0  0  0  0  0
    1.3683   -6.6785    0.3584 O   0  0  0  0  0  0
    0.9613   -6.4205   -0.9400 C   0  0  0  0  0  0
    1.1245   -5.3563   -1.5225 O   0  0  0  0  0  0
    0.2720   -7.6291   -1.5869 C   0  0  0  0  0  0
   -0.3516   -7.3796   -2.9952 C   0  0  0  0  0  0
    0.4773   -7.7695   -4.2327 C   0  0  0  0  0  0
   -0.3542   -7.9106   -5.4750 C   0  0  0  0  0  0
   -1.4341   -7.3720   -5.6758 O   0  0  0  0  0  0
    0.2249   -8.6990   -6.3933 O   0  0  0  0  0  0
   -1.7542   -7.9702   -3.1852 C   0  0  0  0  0  0
   -2.7487   -7.2830   -3.3097 O   0  0  0  0  0  0
   -1.8051   -9.3127   -3.3137 O   0  0  0  0  0  0
    7.5676  -17.1146    1.8384 H   0  0  0  0  0  0
    7.2068  -18.6678    2.1182 H   0  0  0  0  0  0
    6.5384  -15.5466    2.4185 H   0  0  0  0  0  0
    3.0465  -14.0406   -1.0527 H   0  0  0  0  0  0
    2.0961  -11.8446    3.9802 H   0  0  0  0  0  0
    2.5765   -5.6413   -3.8610 H   0  0  0  0  0  0
    1.6043   -8.5785    0.3078 H   0  0  0  0  0  0
   -0.4180   -8.7950   -7.1273 H   0  0  0  0  0  0
   -0.9846   -9.7901   -3.0589 H   0  0  0  0  0  0
  1  2  1  0  0  0
  2  3  1  0  0  0
  3  4  1  0  0  0
  4  5  1  0  0  0
  5  6  1  0  0  0
  5  7  1  0  0  0
  7  8  1  0  0  0
  7 39  1  0  0  0
  8  9  1  0  0  0
  8 27  1  0  0  0
  9 10  1  0  0  0
 10 11  1  0  0  0
 10 12  1  0  0  0
 12 13  1  0  0  0
 13 14  1  0  0  0
 13 26  1  0  0  0
 14 15  1  0  0  0
 15 16  1  0  0  0
 16 17  1  0  0  0
 17 18  1  0  0  0
 18 19  1  0  0  0
 18 25  1  0  0  0
 19 20  1  0  0  0
 20 21  1  0  0  0
 20 24  1  0  0  0
 21 22  1  0  0  0
 21 23  1  0  0  0
 23 51  1  0  0  0
 23 52  1  0  0  0
 24 53  1  0  0  0
 25 54  1  0  0  0
 26 55  1  0  0  0
 27 28  1  0  0  0
 28 29  2  0  0  0
 28 30  1  0  0  0
 30 31  1  0  0  0
 31 32  1  0  0  0
 31 36  1  0  0  0
 32 33  1  0  0  0
 33 34  2  0  0  0
 33 35  1  0  0  0
 35 56  1  0  0  0
 36 37  2  0  0  0
 36 38  1  0  0  0
 38 57  1  0  0  0
 39 40  1  0  0  0
 40 41  2  0  0  0
 40 42  1  0  0  0
 42 43  1  0  0  0
 43 44  1  0  0  0
 43 48  1  0  0  0
 44 45  1  0  0  0
 45 46  2  0  0  0
 45 47  1  0  0  0
 47 58  1  0  0  0
 48 49  2  0  0  0
 48 50  1  0  0  0
 50 59  1  0  0  0
M  END
>  <AUTHOR>
    GENERATED BY OPEN BABEL 2.4.1

>  <CHROM.1>
-66.28381114,168.98978693,179.40060607,-57.03537572,59.93158792,59.62916426
134.58765724,91.76299325,169.73669558,-99.88469916,139.27994987,64.58976981
-57.74803763,75.73658207,-112.01172534,-81.91254729,-115.27035101,-66.52995303
174.98805305,-165.31191169,35.25036722,173.77605493,-76.42707983,92.76054035
-17.70078952,178.52283466,-65.41193222,-50.01687562,17.70642245,64.56627825
-6.64108301,-5.01743729,173.82265852,96.67978051,161.25928812,111.84463410
24.08433943,175.15768578,14.17014771,2.06033415,-9.07481561,0.33618391,-2.79750287
1.17329559,-2.23551642

>  <COMPND>
    UNNAMED

>  <MASTER>
        0    0    0    0    0    0    0    0  109    0  109    0

>  <Name>
FB1.pdb

>  <RI>
0

>  <Rbt.Current_Directory>
/home/fc/tossine/FB1_39/p3/1_clust05

>  <Rbt.Executable>
rbdock/0.1.0

>  <Rbt.Library>
librxdock.so/0.1.0

>  <Rbt.Parameter_File>
/cluster/rxdock/data/scripts/dock.prm

>  <Rbt.Receptor>
rx_1.prm

>  <SCORE>
48.422

>  <SCORE.INTER>
14.7089

>  <SCORE.INTER.CONST>
1

>  <SCORE.INTER.POLAR>
-1.57535

>  <SCORE.INTER.REPUL>
0.103675

>  <SCORE.INTER.ROT>
32

>  <SCORE.INTER.VDW>
-17.8533

>  <SCORE.INTER.norm>
0.294178

>  <SCORE.INTRA>
28.7895

>  <SCORE.INTRA.DIHEDRAL>
50.9841

>  <SCORE.INTRA.DIHEDRAL.0>
47.3121

>  <SCORE.INTRA.POLAR>
0.418874

>  <SCORE.INTRA.POLAR.0>
-1.47808

>  <SCORE.INTRA.REPUL>
0

>  <SCORE.INTRA.REPUL.0>
0

>  <SCORE.INTRA.VDW>
1.87325

>  <SCORE.INTRA.VDW.0>
-2.78316

>  <SCORE.INTRA.norm>
0.575789

>  <SCORE.RESTR>
4.92357

>  <SCORE.RESTR.CAVITY>
4.92357

>  <SCORE.RESTR.norm>
0.0984715

>  <SCORE.SYSTEM>
0

>  <SCORE.SYSTEM.CONST>
0

>  <SCORE.SYSTEM.DIHEDRAL>
0

>  <SCORE.SYSTEM.norm>
0

>  <SCORE.heavy>
50

>  <SCORE.norm>
0.968439

$$$$
