FB1.pdb
  RxDock  10072008093D
librxdock.so/0.1.0
 59 58  0  0  0  0  0  0  0  0999 V2000
    2.0446   -7.3769    5.0799 C   0  0  0  0  0  0
    1.0428   -8.4766    5.4239 C   0  0  0  0  0  0
    1.4998   -9.8477    4.8990 C   0  0  0  0  0  0
    1.3789   -9.9920    3.3614 C   0  0  0  0  0  0
    2.3984  -10.9892    2.7083 C   0  0  0  0  0  0
    1.7239  -12.3769    2.6083 C   0  0  0  0  0  0
    2.9302  -10.5133    1.2911 C   0  0  0  0  0  0
    2.0218  -10.8654    0.0194 C   0  0  0  0  0  0
    2.1633  -12.1744   -0.8720 C   0  0  0  0  0  0
    2.3133  -13.5832   -0.0269 C   0  0  0  0  0  0
    2.0833  -14.7506   -0.9854 C   0  0  0  0  0  0
    3.6899  -13.7933    0.7513 C   0  0  0  0  0  0
    4.1426  -15.1887    1.4342 C   0  0  0  0  0  0
    5.3105  -16.0637    0.8627 C   0  0  0  0  0  0
    5.7600  -17.3568    1.6844 C   0  0  0  0  0  0
    6.9945  -18.2660    1.3049 C   0  0  0  0  0  0
    6.8652  -19.2841    0.1413 C   0  0  0  0  0  0
    6.7334  -18.6825   -1.3112 C   0  0  0  0  0  0
    5.4055  -18.9385   -2.0347 C   0  0  0  0  0  0
    4.6471  -20.2632   -1.7372 C   0  0  0  0  0  0
    3.2282  -20.5128   -2.3286 C   0  0  0  0  0  0
    2.5552  -21.8232   -1.9448 C   0  0  0  0  0  0
    2.3391  -19.3658   -2.0633 N   0  0  0  0  0  0
    5.4814  -21.3014   -2.3117 O   0  0  0  0  0  0
    6.9383  -17.2682   -1.2238 O   0  0  0  0  0  0
    4.5570  -14.8320    2.7638 O   0  0  0  0  0  0
    0.6499  -10.9024    0.4978 O   0  0  0  0  0  0
   -0.3213  -10.5557   -0.3864 C   0  0  0  0  0  0
   -1.3754  -11.1367   -0.5617 O   0  0  0  0  0  0
    0.0769   -9.2660   -1.0493 C   0  0  0  0  0  0
    0.0673   -9.3631   -2.5832 C   0  0  0  0  0  0
   -0.5930   -8.1472   -3.2459 C   0  0  0  0  0  0
   -0.9257   -8.4287   -4.6928 C   0  0  0  0  0  0
   -1.9480   -9.0013   -5.0546 O   0  0  0  0  0  0
    0.0069   -7.9895   -5.5508 O   0  0  0  0  0  0
    1.5388   -9.4588   -3.0091 C   0  0  0  0  0  0
    2.2374   -8.4789   -3.2195 O   0  0  0  0  0  0
    1.9846  -10.7110   -3.1805 O   0  0  0  0  0  0
    3.3162   -9.0815    1.3173 O   0  0  0  0  0  0
    3.9182   -8.5405    0.1934 C   0  0  0  0  0  0
    4.6907   -9.1426   -0.5408 O   0  0  0  0  0  0
    3.5091   -7.0806   -0.0424 C   0  0  0  0  0  0
    2.7143   -6.4040    1.1174 C   0  0  0  0  0  0
    1.3326   -6.9790    1.4790 C   0  0  0  0  0  0
    0.3264   -5.9177    1.8193 C   0  0  0  0  0  0
   -0.5169   -5.4637    1.0582 O   0  0  0  0  0  0
    0.4255   -5.5059    3.0924 O   0  0  0  0  0  0
    3.4995   -6.2550    2.4264 C   0  0  0  0  0  0
    3.4922   -5.2360    3.0884 O   0  0  0  0  0  0
    4.1215   -7.3717    2.8593 O   0  0  0  0  0  0
    2.0596  -18.9479   -2.9497 H   0  0  0  0  0  0
    2.8774  -18.6385   -1.5873 H   0  0  0  0  0  0
    5.3531  -21.2133   -3.2797 H   0  0  0  0  0  0
    6.7601  -16.8803   -2.1003 H   0  0  0  0  0  0
    5.2986  -14.2083    2.6905 H   0  0  0  0  0  0
   -0.1080   -8.2803   -6.4758 H   0  0  0  0  0  0
    2.5676  -10.8342   -3.9703 H   0  0  0  0  0  0
   -0.2358   -4.7915    3.2093 H   0  0  0  0  0  0
    5.0479   -7.4828    2.5500 H   0  0  0  0  0  0
  1  2  1  0  0  0
  2  3  1  0  0  0
  3  4  1  0  0  0
  4  5  1  0  0  0
  5  6  1  0  0  0
  5  7  1  0  0  0
  7  8  1  0  0  0
  7 39  1  0  0  0
  8  9  1  0  0  0
  8 27  1  0  0  0
  9 10  1  0  0  0
 10 11  1  0  0  0
 10 12  1  0  0  0
 12 13  1  0  0  0
 13 14  1  0  0  0
 13 26  1  0  0  0
 14 15  1  0  0  0
 15 16  1  0  0  0
 16 17  1  0  0  0
 17 18  1  0  0  0
 18 19  1  0  0  0
 18 25  1  0  0  0
 19 20  1  0  0  0
 20 21  1  0  0  0
 20 24  1  0  0  0
 21 22  1  0  0  0
 21 23  1  0  0  0
 23 51  1  0  0  0
 23 52  1  0  0  0
 24 53  1  0  0  0
 25 54  1  0  0  0
 26 55  1  0  0  0
 27 28  1  0  0  0
 28 29  2  0  0  0
 28 30  1  0  0  0
 30 31  1  0  0  0
 31 32  1  0  0  0
 31 36  1  0  0  0
 32 33  1  0  0  0
 33 34  2  0  0  0
 33 35  1  0  0  0
 35 56  1  0  0  0
 36 37  2  0  0  0
 36 38  1  0  0  0
 38 57  1  0  0  0
 39 40  1  0  0  0
 40 41  2  0  0  0
 40 42  1  0  0  0
 42 43  1  0  0  0
 43 44  1  0  0  0
 43 48  1  0  0  0
 44 45  1  0  0  0
 45 46  2  0  0  0
 45 47  1  0  0  0
 47 58  1  0  0  0
 48 49  2  0  0  0
 48 50  1  0  0  0
 50 59  1  0  0  0
M  END
>  <AUTHOR>
    GENERATED BY OPEN BABEL 2.4.1

>  <CHROM.1>
-72.72767417,151.98262995,93.29208109,-84.44672255,-91.80191211,174.07191985
46.00077622,149.77008387,165.84489927,-169.55972977,109.90803086,174.76488144
-60.58640491,-174.60810692,-77.53997763,68.59629336,-114.87820136,-31.88011441
-173.79640700,173.74669942,-178.28812749,-73.53296895,116.77998924,135.70449773
126.12964139,135.56421383,-164.58739486,-87.68893312,83.84573642,170.63811595
138.73714624,-35.07986687,10.01563036,-63.39999238,-141.13395700,135.62335238
98.15899611,177.45279629,91.38360130,2.57666795,-11.80984852,0.04782913,-2.16420908
1.01640124,-2.47068927

>  <COMPND>
    UNNAMED

>  <MASTER>
        0    0    0    0    0    0    0    0  109    0  109    0

>  <Name>
FB1.pdb

>  <RI>
0

>  <Rbt.Current_Directory>
/home/fc/tossine/FB1_39/p3/1_clust05

>  <Rbt.Executable>
rbdock/0.1.0

>  <Rbt.Library>
librxdock.so/0.1.0

>  <Rbt.Parameter_File>
/cluster/rxdock/data/scripts/dock.prm

>  <Rbt.Receptor>
rx_1.prm

>  <SCORE>
54.1717

>  <SCORE.INTER>
9.54045

>  <SCORE.INTER.CONST>
1

>  <SCORE.INTER.POLAR>
-2.86991

>  <SCORE.INTER.REPUL>
0.178979

>  <SCORE.INTER.ROT>
32

>  <SCORE.INTER.VDW>
-18.9968

>  <SCORE.INTER.norm>
0.190809

>  <SCORE.INTRA>
38.9676

>  <SCORE.INTRA.DIHEDRAL>
66.3695

>  <SCORE.INTRA.DIHEDRAL.0>
47.3121

>  <SCORE.INTRA.POLAR>
1.47808

>  <SCORE.INTRA.POLAR.0>
-1.47808

>  <SCORE.INTRA.REPUL>
0

>  <SCORE.INTRA.REPUL.0>
0

>  <SCORE.INTRA.VDW>
0.757416

>  <SCORE.INTRA.VDW.0>
-2.78316

>  <SCORE.INTRA.norm>
0.779352

>  <SCORE.RESTR>
5.66361

>  <SCORE.RESTR.CAVITY>
5.66361

>  <SCORE.RESTR.norm>
0.113272

>  <SCORE.SYSTEM>
0

>  <SCORE.SYSTEM.CONST>
0

>  <SCORE.SYSTEM.DIHEDRAL>
0

>  <SCORE.SYSTEM.norm>
0

>  <SCORE.heavy>
50

>  <SCORE.norm>
1.08343

$$$$
