FB1.pdb
  RxDock  10072009203D
librxdock.so/0.1.0
 59 58  0  0  0  0  0  0  0  0999 V2000
    5.3340   -5.3018   -4.0943 C   0  0  0  0  0  0
    4.3286   -6.2660   -3.4690 C   0  0  0  0  0  0
    2.9207   -6.0825   -4.0593 C   0  0  0  0  0  0
    2.0362   -5.0993   -3.2528 C   0  0  0  0  0  0
    2.2819   -5.1068   -1.7036 C   0  0  0  0  0  0
    1.4227   -3.9881   -1.0703 C   0  0  0  0  0  0
    1.9817   -6.5078   -1.0216 C   0  0  0  0  0  0
    2.4057   -6.6729    0.5143 C   0  0  0  0  0  0
    3.9019   -6.7247    1.0500 C   0  0  0  0  0  0
    4.3475   -8.1537    1.7434 C   0  0  0  0  0  0
    5.1889   -7.8504    2.9820 C   0  0  0  0  0  0
    3.1611   -9.1465    2.1327 C   0  0  0  0  0  0
    3.1065  -10.7067    1.7068 C   0  0  0  0  0  0
    3.5098  -11.2015    0.2755 C   0  0  0  0  0  0
    2.5502  -10.8412   -0.9487 C   0  0  0  0  0  0
    1.1611  -11.5404   -1.2245 C   0  0  0  0  0  0
    1.1070  -13.0766   -1.4362 C   0  0  0  0  0  0
    2.2229  -13.9278   -0.7157 C   0  0  0  0  0  0
    1.7718  -14.7527    0.4962 C   0  0  0  0  0  0
    1.2586  -13.9954    1.7537 C   0  0  0  0  0  0
    0.5449  -14.7649    2.9044 C   0  0  0  0  0  0
    1.2137  -16.0476    3.3785 C   0  0  0  0  0  0
    0.2614  -13.8671    4.0402 N   0  0  0  0  0  0
    2.4525  -13.4372    2.3594 O   0  0  0  0  0  0
    2.7946  -14.8155   -1.6826 O   0  0  0  0  0  0
    4.0173  -11.3663    2.6023 O   0  0  0  0  0  0
    1.8081   -5.5537    1.2234 O   0  0  0  0  0  0
    1.8866   -5.5700    2.5795 C   0  0  0  0  0  0
    1.7669   -6.5459    3.2954 O   0  0  0  0  0  0
    2.2495   -4.1892    3.0518 C   0  0  0  0  0  0
    3.7161   -4.0850    3.5000 C   0  0  0  0  0  0
    4.3256   -2.7086    3.2046 C   0  0  0  0  0  0
    4.8352   -2.6315    1.7842 C   0  0  0  0  0  0
    4.7085   -3.5379    0.9680 O   0  0  0  0  0  0
    5.4419   -1.4705    1.4964 O   0  0  0  0  0  0
    3.7143   -4.3451    5.0128 C   0  0  0  0  0  0
    2.8759   -3.8782    5.7688 O   0  0  0  0  0  0
    4.7406   -5.0893    5.4472 O   0  0  0  0  0  0
    0.5792   -6.9287   -1.2578 O   0  0  0  0  0  0
    0.3336   -8.2537   -1.5773 C   0  0  0  0  0  0
   -0.1923   -9.0651   -0.8267 O   0  0  0  0  0  0
    0.7968   -8.6075   -2.9967 C   0  0  0  0  0  0
   -0.2671   -8.4205   -4.1227 C   0  0  0  0  0  0
   -1.3769   -7.3762   -3.9030 C   0  0  0  0  0  0
   -2.4223   -7.3957   -4.9806 C   0  0  0  0  0  0
   -3.6321   -7.3646   -4.8018 O   0  0  0  0  0  0
   -1.8897   -7.4333   -6.2116 O   0  0  0  0  0  0
    0.3184   -8.1725   -5.5183 C   0  0  0  0  0  0
    1.1351   -7.3020   -5.7466 O   0  0  0  0  0  0
   -0.0519   -9.0573   -6.4676 O   0  0  0  0  0  0
   -0.3234  -14.3573    4.7156 H   0  0  0  0  0  0
   -0.3148  -13.0909    3.7071 H   0  0  0  0  0  0
    2.1354  -13.0138    3.1849 H   0  0  0  0  0  0
    3.7173  -14.9943   -1.4233 H   0  0  0  0  0  0
    3.8812  -12.3248    2.5175 H   0  0  0  0  0  0
    6.0242   -1.4878    0.7128 H   0  0  0  0  0  0
    5.5806   -4.9659    4.9392 H   0  0  0  0  0  0
   -2.5645   -7.8359   -6.7979 H   0  0  0  0  0  0
    0.5183   -9.0773   -7.2681 H   0  0  0  0  0  0
  1  2  1  0  0  0
  2  3  1  0  0  0
  3  4  1  0  0  0
  4  5  1  0  0  0
  5  6  1  0  0  0
  5  7  1  0  0  0
  7  8  1  0  0  0
  7 39  1  0  0  0
  8  9  1  0  0  0
  8 27  1  0  0  0
  9 10  1  0  0  0
 10 11  1  0  0  0
 10 12  1  0  0  0
 12 13  1  0  0  0
 13 14  1  0  0  0
 13 26  1  0  0  0
 14 15  1  0  0  0
 15 16  1  0  0  0
 16 17  1  0  0  0
 17 18  1  0  0  0
 18 19  1  0  0  0
 18 25  1  0  0  0
 19 20  1  0  0  0
 20 21  1  0  0  0
 20 24  1  0  0  0
 21 22  1  0  0  0
 21 23  1  0  0  0
 23 51  1  0  0  0
 23 52  1  0  0  0
 24 53  1  0  0  0
 25 54  1  0  0  0
 26 55  1  0  0  0
 27 28  1  0  0  0
 28 29  2  0  0  0
 28 30  1  0  0  0
 30 31  1  0  0  0
 31 32  1  0  0  0
 31 36  1  0  0  0
 32 33  1  0  0  0
 33 34  2  0  0  0
 33 35  1  0  0  0
 35 56  1  0  0  0
 36 37  2  0  0  0
 36 38  1  0  0  0
 38 57  1  0  0  0
 39 40  1  0  0  0
 40 41  2  0  0  0
 40 42  1  0  0  0
 42 43  1  0  0  0
 43 44  1  0  0  0
 43 48  1  0  0  0
 44 45  1  0  0  0
 45 46  2  0  0  0
 45 47  1  0  0  0
 47 58  1  0  0  0
 48 49  2  0  0  0
 48 50  1  0  0  0
 50 59  1  0  0  0
M  END
>  <AUTHOR>
    GENERATED BY OPEN BABEL 2.4.1

>  <CHROM.1>
-92.74705371,-33.75878429,174.82053133,171.34591512,-68.67395290,137.76849942
-115.57757656,171.80868801,-139.21808950,129.05858914,-42.10865510,-70.36218486
168.05844259,-74.54600573,-58.57422300,28.59308740,107.17583182,-64.74077125
151.41291065,168.59408286,46.63491626,-176.16928933,171.71942692,-38.93059979
-104.80551583,146.61114201,-84.18268992,-42.01375385,3.39516879,161.06168120
32.49453886,108.20627109,-90.51830420,26.79195075,-173.58583995,-52.69299369
134.39500806,155.27654294,-161.80834883,2.05796443,-8.14485822,-0.15367914
0.75899589,-1.13795931,-0.43154857

>  <COMPND>
    UNNAMED

>  <MASTER>
        0    0    0    0    0    0    0    0  109    0  109    0

>  <Name>
FB1.pdb

>  <RI>
0

>  <Rbt.Current_Directory>
/home/fc/tossine/FB1_39/p3/1_clust05

>  <Rbt.Executable>
rbdock/0.1.0

>  <Rbt.Library>
librxdock.so/0.1.0

>  <Rbt.Parameter_File>
/cluster/rxdock/data/scripts/dock.prm

>  <Rbt.Receptor>
rx_3.prm

>  <SCORE>
88.4542

>  <SCORE.INTER>
44.2195

>  <SCORE.INTER.CONST>
1

>  <SCORE.INTER.POLAR>
-1.30061

>  <SCORE.INTER.REPUL>
0.726886

>  <SCORE.INTER.ROT>
32

>  <SCORE.INTER.VDW>
7.60718

>  <SCORE.INTER.norm>
0.884391

>  <SCORE.INTRA>
33.1963

>  <SCORE.INTRA.DIHEDRAL>
67.7682

>  <SCORE.INTRA.DIHEDRAL.0>
47.3121

>  <SCORE.INTRA.POLAR>
0.47221

>  <SCORE.INTRA.POLAR.0>
-1.47808

>  <SCORE.INTRA.REPUL>
0

>  <SCORE.INTRA.REPUL.0>
0

>  <SCORE.INTRA.VDW>
-2.29333

>  <SCORE.INTRA.VDW.0>
-2.78316

>  <SCORE.INTRA.norm>
0.663926

>  <SCORE.RESTR>
11.0384

>  <SCORE.RESTR.CAVITY>
11.0384

>  <SCORE.RESTR.norm>
0.220768

>  <SCORE.SYSTEM>
0

>  <SCORE.SYSTEM.CONST>
0

>  <SCORE.SYSTEM.DIHEDRAL>
0

>  <SCORE.SYSTEM.norm>
0

>  <SCORE.heavy>
50

>  <SCORE.norm>
1.76908

$$$$
