FB1.pdb
  RxDock  10072009203D
librxdock.so/0.1.0
 59 58  0  0  0  0  0  0  0  0999 V2000
    3.1257  -13.6918    2.4675 C   0  0  0  0  0  0
    3.6988  -12.2776    2.5233 C   0  0  0  0  0  0
    3.7206  -11.6169    1.1350 C   0  0  0  0  0  0
    4.3514  -10.2021    1.1343 C   0  0  0  0  0  0
    3.6446   -9.1622    2.0721 C   0  0  0  0  0  0
    4.7281   -8.2420    2.6804 C   0  0  0  0  0  0
    2.5221   -8.3111    1.3416 C   0  0  0  0  0  0
    1.6332   -9.0706    0.2465 C   0  0  0  0  0  0
    2.1150   -9.4487   -1.2208 C   0  0  0  0  0  0
    1.1388   -8.9123   -2.4376 C   0  0  0  0  0  0
   -0.2035   -8.4990   -1.8361 C   0  0  0  0  0  0
    1.7153   -7.7211   -3.3283 C   0  0  0  0  0  0
    2.8534   -6.6841   -2.8302 C   0  0  0  0  0  0
    3.8283   -7.0110   -1.6475 C   0  0  0  0  0  0
    4.0651   -5.8948   -0.5307 C   0  0  0  0  0  0
    4.9712   -4.6165   -0.7300 C   0  0  0  0  0  0
    4.5876   -3.5679   -1.8074 C   0  0  0  0  0  0
    4.9816   -2.0702   -1.5061 C   0  0  0  0  0  0
    6.2984   -1.8530   -0.7502 C   0  0  0  0  0  0
    6.2504   -1.7520    0.8008 C   0  0  0  0  0  0
    5.5061   -0.5729    1.4944 C   0  0  0  0  0  0
    6.2868    0.1910    2.5547 C   0  0  0  0  0  0
    4.9346    0.3488    0.4942 N   0  0  0  0  0  0
    5.5420   -2.9446    1.2251 O   0  0  0  0  0  0
    5.0533   -1.3727   -2.7543 O   0  0  0  0  0  0
    3.7027   -6.4902   -3.9738 O   0  0  0  0  0  0
    1.2559  -10.3424    0.8403 O   0  0  0  0  0  0
    0.2206  -11.0083    0.2660 C   0  0  0  0  0  0
   -0.8970  -10.5698    0.0706 O   0  0  0  0  0  0
    0.7131  -12.3555   -0.1857 C   0  0  0  0  0  0
    1.8640  -12.2537   -1.1994 C   0  0  0  0  0  0
    2.8889  -13.3843   -1.0418 C   0  0  0  0  0  0
    2.2141  -14.7363   -1.0462 C   0  0  0  0  0  0
    1.0929  -14.9333   -1.5022 O   0  0  0  0  0  0
    2.9615  -15.7083   -0.5027 O   0  0  0  0  0  0
    1.2117  -12.3258   -2.5870 C   0  0  0  0  0  0
    1.6374  -11.7166   -3.5565 O   0  0  0  0  0  0
    0.1024  -13.0761   -2.6383 O   0  0  0  0  0  0
    1.6859   -7.5752    2.3209 O   0  0  0  0  0  0
    1.1938   -6.3309    1.9638 C   0  0  0  0  0  0
    0.5429   -6.1035    0.9524 O   0  0  0  0  0  0
    1.5545   -5.2451    2.9863 C   0  0  0  0  0  0
    2.8095   -4.3832    2.6448 C   0  0  0  0  0  0
    2.6191   -3.1582    1.7318 C   0  0  0  0  0  0
    1.7178   -3.4325    0.5626 C   0  0  0  0  0  0
    2.0840   -3.6757   -0.5790 O   0  0  0  0  0  0
    0.4190   -3.4047    0.8983 O   0  0  0  0  0  0
    3.6147   -3.9182    3.8645 C   0  0  0  0  0  0
    3.4732   -4.3990    4.9715 O   0  0  0  0  0  0
    4.5763   -3.0060    3.6105 O   0  0  0  0  0  0
    4.6098    1.1925    0.9645 H   0  0  0  0  0  0
    4.0909   -0.0761    0.1029 H   0  0  0  0  0  0
    5.3775   -2.8065    2.1817 H   0  0  0  0  0  0
    5.3584   -0.4637   -2.5777 H   0  0  0  0  0  0
    4.2694   -5.7200   -3.8004 H   0  0  0  0  0  0
    3.9001  -15.4808   -0.3584 H   0  0  0  0  0  0
    0.1868  -13.8959   -3.1856 H   0  0  0  0  0  0
    0.3824   -3.2952    1.8719 H   0  0  0  0  0  0
    4.8627   -2.4715    4.3841 H   0  0  0  0  0  0
  1  2  1  0  0  0
  2  3  1  0  0  0
  3  4  1  0  0  0
  4  5  1  0  0  0
  5  6  1  0  0  0
  5  7  1  0  0  0
  7  8  1  0  0  0
  7 39  1  0  0  0
  8  9  1  0  0  0
  8 27  1  0  0  0
  9 10  1  0  0  0
 10 11  1  0  0  0
 10 12  1  0  0  0
 12 13  1  0  0  0
 13 14  1  0  0  0
 13 26  1  0  0  0
 14 15  1  0  0  0
 15 16  1  0  0  0
 16 17  1  0  0  0
 17 18  1  0  0  0
 18 19  1  0  0  0
 18 25  1  0  0  0
 19 20  1  0  0  0
 20 21  1  0  0  0
 20 24  1  0  0  0
 21 22  1  0  0  0
 21 23  1  0  0  0
 23 51  1  0  0  0
 23 52  1  0  0  0
 24 53  1  0  0  0
 25 54  1  0  0  0
 26 55  1  0  0  0
 27 28  1  0  0  0
 28 29  2  0  0  0
 28 30  1  0  0  0
 30 31  1  0  0  0
 31 32  1  0  0  0
 31 36  1  0  0  0
 32 33  1  0  0  0
 33 34  2  0  0  0
 33 35  1  0  0  0
 35 56  1  0  0  0
 36 37  2  0  0  0
 36 38  1  0  0  0
 38 57  1  0  0  0
 39 40  1  0  0  0
 40 41  2  0  0  0
 40 42  1  0  0  0
 42 43  1  0  0  0
 43 44  1  0  0  0
 43 48  1  0  0  0
 44 45  1  0  0  0
 45 46  2  0  0  0
 45 47  1  0  0  0
 47 58  1  0  0  0
 48 49  2  0  0  0
 48 50  1  0  0  0
 50 59  1  0  0  0
M  END
>  <AUTHOR>
    GENERATED BY OPEN BABEL 2.4.1

>  <CHROM.1>
-177.51303699,-58.90511012,143.98312647,36.89234464,-75.88762742,146.01706893
-125.91595678,162.85475615,-15.26620204,-23.39480749,20.87945338,-133.68972675
166.44556938,-76.15657245,62.94667489,148.99349038,35.00989377,-92.49769910
-176.01884466,-64.65801699,-128.99546328,-170.63910795,-169.47759280,-55.08004555
-59.39565372,145.27550356,52.01137164,145.93202725,19.99464582,-13.04428889
-113.58654436,54.08345636,97.01768635,85.29905939,-42.73571704,15.00108944
-100.04307508,-5.57132181,158.60722106,2.85266623,-7.34518504,0.14548373
-2.91575390,-1.30879065,-1.18295020

>  <COMPND>
    UNNAMED

>  <MASTER>
        0    0    0    0    0    0    0    0  109    0  109    0

>  <Name>
FB1.pdb

>  <RI>
0

>  <Rbt.Current_Directory>
/home/fc/tossine/FB1_39/p3/1_clust05

>  <Rbt.Executable>
rbdock/0.1.0

>  <Rbt.Library>
librxdock.so/0.1.0

>  <Rbt.Parameter_File>
/cluster/rxdock/data/scripts/dock.prm

>  <Rbt.Receptor>
rx_3.prm

>  <SCORE>
88.992

>  <SCORE.INTER>
36.0857

>  <SCORE.INTER.CONST>
1

>  <SCORE.INTER.POLAR>
-0.569239

>  <SCORE.INTER.REPUL>
0.604239

>  <SCORE.INTER.ROT>
32

>  <SCORE.INTER.VDW>
-2.40009

>  <SCORE.INTER.norm>
0.721714

>  <SCORE.INTRA>
47.0101

>  <SCORE.INTRA.DIHEDRAL>
80.791

>  <SCORE.INTRA.DIHEDRAL.0>
47.3121

>  <SCORE.INTRA.POLAR>
0.478077

>  <SCORE.INTRA.POLAR.0>
-1.47808

>  <SCORE.INTRA.REPUL>
0

>  <SCORE.INTRA.REPUL.0>
0

>  <SCORE.INTRA.VDW>
4.9892

>  <SCORE.INTRA.VDW.0>
-2.78316

>  <SCORE.INTRA.norm>
0.940203

>  <SCORE.RESTR>
5.89614

>  <SCORE.RESTR.CAVITY>
5.89614

>  <SCORE.RESTR.norm>
0.117923

>  <SCORE.SYSTEM>
0

>  <SCORE.SYSTEM.CONST>
0

>  <SCORE.SYSTEM.DIHEDRAL>
0

>  <SCORE.SYSTEM.norm>
0

>  <SCORE.heavy>
50

>  <SCORE.norm>
1.77984

$$$$
