FB1.pdb
  RxDock  10072008063D
librxdock.so/0.1.0
 59 58  0  0  0  0  0  0  0  0999 V2000
   12.3320  -14.1005    8.1119 C   0  0  0  0  0  0
   11.7886  -14.3256    6.7029 C   0  0  0  0  0  0
   11.8008  -15.8145    6.3191 C   0  0  0  0  0  0
   10.5270  -16.2678    5.5631 C   0  0  0  0  0  0
   10.7754  -16.8017    4.1092 C   0  0  0  0  0  0
   10.6762  -18.3445    4.1350 C   0  0  0  0  0  0
    9.7860  -16.1874    3.0314 C   0  0  0  0  0  0
    8.2448  -16.6118    3.1358 C   0  0  0  0  0  0
    7.0098  -15.6354    2.9134 C   0  0  0  0  0  0
    5.7155  -16.3089    2.1434 C   0  0  0  0  0  0
    4.8405  -17.0054    3.1842 C   0  0  0  0  0  0
    4.8219  -15.3163    1.2711 C   0  0  0  0  0  0
    4.0584  -14.0204    1.8681 C   0  0  0  0  0  0
    4.5400  -12.5564    1.5836 C   0  0  0  0  0  0
    3.4459  -11.4620    1.1909 C   0  0  0  0  0  0
    2.4319  -10.8126    2.2129 C   0  0  0  0  0  0
    1.8922   -9.3818    1.9499 C   0  0  0  0  0  0
    1.3054   -9.1023    0.5123 C   0  0  0  0  0  0
    0.1383   -9.9936    0.0697 C   0  0  0  0  0  0
   -0.3656   -9.8746   -1.3966 C   0  0  0  0  0  0
    0.5766  -10.2199   -2.5876 C   0  0  0  0  0  0
    1.1210  -11.6408   -2.6309 C   0  0  0  0  0  0
   -0.0469   -9.8547   -3.8739 N   0  0  0  0  0  0
   -1.4539  -10.8289   -1.4899 O   0  0  0  0  0  0
    0.8771   -7.7369    0.4679 O   0  0  0  0  0  0
    2.7298  -14.0908    1.3235 O   0  0  0  0  0  0
    8.0476  -17.6697    2.1588 O   0  0  0  0  0  0
    8.1565  -18.9485    2.6039 C   0  0  0  0  0  0
    7.9984  -19.3277    3.7487 O   0  0  0  0  0  0
    8.4074  -19.8441    1.4222 C   0  0  0  0  0  0
    9.3350  -19.1998    0.3796 C   0  0  0  0  0  0
   10.8073  -19.5765    0.5889 C   0  0  0  0  0  0
   11.6325  -18.3657    0.9581 C   0  0  0  0  0  0
   11.5213  -17.2756    0.4078 O   0  0  0  0  0  0
   12.5032  -18.5954    1.9522 O   0  0  0  0  0  0
    8.8519  -19.7076   -0.9859 C   0  0  0  0  0  0
    9.5006  -20.4763   -1.6793 O   0  0  0  0  0  0
    7.6768  -19.1986   -1.3812 O   0  0  0  0  0  0
    9.9503  -14.7168    2.9305 O   0  0  0  0  0  0
   11.0184  -14.2215    2.2012 C   0  0  0  0  0  0
   11.9454  -14.8987    1.7765 O   0  0  0  0  0  0
   10.9187  -12.7071    1.9750 C   0  0  0  0  0  0
   12.2357  -11.9007    2.1985 C   0  0  0  0  0  0
   12.9939  -12.1065    3.5226 C   0  0  0  0  0  0
   13.6736  -10.8593    4.0093 C   0  0  0  0  0  0
   13.7964  -10.5238    5.1793 O   0  0  0  0  0  0
   14.1726  -10.1218    3.0056 O   0  0  0  0  0  0
   13.2610  -12.0272    1.0650 C   0  0  0  0  0  0
   13.5699  -11.0966    0.3472 O   0  0  0  0  0  0
   13.8856  -13.2204    0.9792 O   0  0  0  0  0  0
    0.6603   -9.8806   -4.6072 H   0  0  0  0  0  0
   -0.3426   -8.8770   -3.8275 H   0  0  0  0  0  0
   -2.1796  -10.4274   -0.9670 H   0  0  0  0  0  0
    1.6679   -7.1684    0.5124 H   0  0  0  0  0  0
    2.1612  -13.4954    1.8399 H   0  0  0  0  0  0
   13.0466  -17.8281    2.2155 H   0  0  0  0  0  0
    7.2445  -18.6034   -0.7197 H   0  0  0  0  0  0
   14.6541   -9.3740    3.4183 H   0  0  0  0  0  0
   13.4412  -13.9614    1.4479 H   0  0  0  0  0  0
  1  2  1  0  0  0
  2  3  1  0  0  0
  3  4  1  0  0  0
  4  5  1  0  0  0
  5  6  1  0  0  0
  5  7  1  0  0  0
  7  8  1  0  0  0
  7 39  1  0  0  0
  8  9  1  0  0  0
  8 27  1  0  0  0
  9 10  1  0  0  0
 10 11  1  0  0  0
 10 12  1  0  0  0
 12 13  1  0  0  0
 13 14  1  0  0  0
 13 26  1  0  0  0
 14 15  1  0  0  0
 15 16  1  0  0  0
 16 17  1  0  0  0
 17 18  1  0  0  0
 18 19  1  0  0  0
 18 25  1  0  0  0
 19 20  1  0  0  0
 20 21  1  0  0  0
 20 24  1  0  0  0
 21 22  1  0  0  0
 21 23  1  0  0  0
 23 51  1  0  0  0
 23 52  1  0  0  0
 24 53  1  0  0  0
 25 54  1  0  0  0
 26 55  1  0  0  0
 27 28  1  0  0  0
 28 29  2  0  0  0
 28 30  1  0  0  0
 30 31  1  0  0  0
 31 32  1  0  0  0
 31 36  1  0  0  0
 32 33  1  0  0  0
 33 34  2  0  0  0
 33 35  1  0  0  0
 35 56  1  0  0  0
 36 37  2  0  0  0
 36 38  1  0  0  0
 38 57  1  0  0  0
 39 40  1  0  0  0
 40 41  2  0  0  0
 40 42  1  0  0  0
 42 43  1  0  0  0
 43 44  1  0  0  0
 43 48  1  0  0  0
 44 45  1  0  0  0
 45 46  2  0  0  0
 45 47  1  0  0  0
 47 58  1  0  0  0
 48 49  2  0  0  0
 48 50  1  0  0  0
 50 59  1  0  0  0
M  END
>  <AUTHOR>
    GENERATED BY OPEN BABEL 2.4.1

>  <CHROM.1>
138.55621237,118.28573389,103.71725064,-68.21626792,139.73517474,78.99548517
142.61389245,94.47380821,85.66181626,-59.59328025,107.28217050,135.18878398
163.94624126,74.24648553,151.95214848,50.18742628,58.37995867,-172.87133639
68.15574540,62.36109277,59.91285351,71.60068362,166.67124386,23.92131403
38.01320880,93.47791539,-114.80533773,-111.22468479,-43.22830092,-179.64283941
-3.50904039,-10.24061472,135.59482509,-51.53441058,-146.07455603,113.12122459
144.32710239,-175.60916042,18.20824076,7.89631107,-14.38822689,1.75773892
-0.37456461,-0.36423299,0.13296776

>  <COMPND>
    UNNAMED

>  <MASTER>
        0    0    0    0    0    0    0    0  109    0  109    0

>  <Name>
FB1.pdb

>  <RI>
0

>  <Rbt.Current_Directory>
/home/fc/tossine/FB1_39/p3/1_clust05

>  <Rbt.Executable>
rbdock/0.1.0

>  <Rbt.Library>
librxdock.so/0.1.0

>  <Rbt.Parameter_File>
/cluster/rxdock/data/scripts/dock.prm

>  <Rbt.Receptor>
rx_1.prm

>  <SCORE>
25.5724

>  <SCORE.INTER>
6.89264

>  <SCORE.INTER.CONST>
1

>  <SCORE.INTER.POLAR>
-1.78885

>  <SCORE.INTER.REPUL>
1.22319

>  <SCORE.INTER.ROT>
32

>  <SCORE.INTER.VDW>
-30.5412

>  <SCORE.INTER.norm>
0.137853

>  <SCORE.INTRA>
15.119

>  <SCORE.INTRA.DIHEDRAL>
30.2789

>  <SCORE.INTRA.DIHEDRAL.0>
47.3121

>  <SCORE.INTRA.POLAR>
0.789837

>  <SCORE.INTRA.POLAR.0>
-1.47808

>  <SCORE.INTRA.REPUL>
0.00378397

>  <SCORE.INTRA.REPUL.0>
0

>  <SCORE.INTRA.VDW>
-2.72484

>  <SCORE.INTRA.VDW.0>
-2.78316

>  <SCORE.INTRA.norm>
0.30238

>  <SCORE.RESTR>
3.56074

>  <SCORE.RESTR.CAVITY>
3.56074

>  <SCORE.RESTR.norm>
0.0712148

>  <SCORE.SYSTEM>
0

>  <SCORE.SYSTEM.CONST>
0

>  <SCORE.SYSTEM.DIHEDRAL>
0

>  <SCORE.SYSTEM.norm>
0

>  <SCORE.heavy>
50

>  <SCORE.norm>
0.511448

$$$$
