FB1.pdb
  RxDock  10072007213D
librxdock.so/0.1.0
 59 58  0  0  0  0  0  0  0  0999 V2000
    3.1377   -8.2318    4.8846 C   0  0  0  0  0  0
    4.4848   -7.5408    4.6868 C   0  0  0  0  0  0
    4.8770   -7.4723    3.2016 C   0  0  0  0  0  0
    4.0545   -6.4384    2.3928 C   0  0  0  0  0  0
    2.9905   -5.6419    3.2258 C   0  0  0  0  0  0
    3.6986   -4.4429    3.8979 C   0  0  0  0  0  0
    1.7470   -5.1581    2.3672 C   0  0  0  0  0  0
    1.2255   -6.1499    1.2224 C   0  0  0  0  0  0
    0.4219   -7.4982    1.4762 C   0  0  0  0  0  0
    1.3417   -8.7811    1.9554 C   0  0  0  0  0  0
    0.7505   -9.3469    3.2455 C   0  0  0  0  0  0
    1.5213   -9.9545    0.8897 C   0  0  0  0  0  0
    1.0040   -9.8768   -0.6416 C   0  0  0  0  0  0
    1.7075  -10.6541   -1.8065 C   0  0  0  0  0  0
    1.9360  -12.2254   -1.6389 C   0  0  0  0  0  0
    2.1814  -12.9450   -0.2546 C   0  0  0  0  0  0
    3.4821  -12.6528    0.5392 C   0  0  0  0  0  0
    4.3633  -13.9006    0.9338 C   0  0  0  0  0  0
    4.4544  -14.2218    2.4308 C   0  0  0  0  0  0
    5.4413  -15.3333    2.8877 C   0  0  0  0  0  0
    6.1804  -15.2227    4.2540 C   0  0  0  0  0  0
    5.3358  -14.8032    5.4491 C   0  0  0  0  0  0
    6.9315  -16.4582    4.5468 N   0  0  0  0  0  0
    4.6249  -16.5271    2.9980 O   0  0  0  0  0  0
    3.8371  -15.0455    0.2542 O   0  0  0  0  0  0
   -0.3382  -10.3904   -0.6047 O   0  0  0  0  0  0
    0.3484   -5.3630    0.3715 O   0  0  0  0  0  0
    0.8790   -4.2513   -0.2010 C   0  0  0  0  0  0
    1.6816   -3.4927    0.3088 O   0  0  0  0  0  0
    0.3859   -4.1646   -1.6190 C   0  0  0  0  0  0
    1.1151   -5.1386   -2.5582 C   0  0  0  0  0  0
    2.6050   -5.2779   -2.2203 C   0  0  0  0  0  0
    3.0796   -6.6980   -2.4240 C   0  0  0  0  0  0
    3.2894   -7.1914   -3.5268 O   0  0  0  0  0  0
    3.2531   -7.3730   -1.2780 O   0  0  0  0  0  0
    0.4101   -6.4920   -2.3925 C   0  0  0  0  0  0
    0.5963   -7.2282   -1.4355 O   0  0  0  0  0  0
   -0.3934   -6.8255   -3.4118 O   0  0  0  0  0  0
    0.6430   -4.6901    3.2402 O   0  0  0  0  0  0
   -0.1127   -5.6367    3.9117 C   0  0  0  0  0  0
   -1.3220   -5.7791    3.7862 O   0  0  0  0  0  0
    0.7377   -6.5064    4.8469 C   0  0  0  0  0  0
    0.7956   -6.0437    6.3359 C   0  0  0  0  0  0
    1.4766   -6.9738    7.3565 C   0  0  0  0  0  0
    0.7626   -8.2840    7.5238 C   0  0  0  0  0  0
    0.3655   -8.7501    8.5829 O   0  0  0  0  0  0
    0.5734   -8.9180    6.3565 O   0  0  0  0  0  0
    1.3759   -4.6395    6.5452 C   0  0  0  0  0  0
    2.5681   -4.4063    6.5137 O   0  0  0  0  0  0
    0.4672   -3.6486    6.6621 O   0  0  0  0  0  0
    6.5806  -16.8652    5.4127 H   0  0  0  0  0  0
    7.9030  -16.2102    4.7470 H   0  0  0  0  0  0
    5.2235  -17.2005    3.3849 H   0  0  0  0  0  0
    4.0293  -14.9497   -0.6968 H   0  0  0  0  0  0
   -0.2930  -11.3339   -0.3760 H   0  0  0  0  0  0
    3.6072   -8.2776   -1.3769 H   0  0  0  0  0  0
   -0.3831   -6.1874   -4.1678 H   0  0  0  0  0  0
    0.0137   -9.6998    6.5485 H   0  0  0  0  0  0
    0.8402   -2.7548    6.8297 H   0  0  0  0  0  0
  1  2  1  0  0  0
  2  3  1  0  0  0
  3  4  1  0  0  0
  4  5  1  0  0  0
  5  6  1  0  0  0
  5  7  1  0  0  0
  7  8  1  0  0  0
  7 39  1  0  0  0
  8  9  1  0  0  0
  8 27  1  0  0  0
  9 10  1  0  0  0
 10 11  1  0  0  0
 10 12  1  0  0  0
 12 13  1  0  0  0
 13 14  1  0  0  0
 13 26  1  0  0  0
 14 15  1  0  0  0
 15 16  1  0  0  0
 16 17  1  0  0  0
 17 18  1  0  0  0
 18 19  1  0  0  0
 18 25  1  0  0  0
 19 20  1  0  0  0
 20 21  1  0  0  0
 20 24  1  0  0  0
 21 22  1  0  0  0
 21 23  1  0  0  0
 23 51  1  0  0  0
 23 52  1  0  0  0
 24 53  1  0  0  0
 25 54  1  0  0  0
 26 55  1  0  0  0
 27 28  1  0  0  0
 28 29  2  0  0  0
 28 30  1  0  0  0
 30 31  1  0  0  0
 31 32  1  0  0  0
 31 36  1  0  0  0
 32 33  1  0  0  0
 33 34  2  0  0  0
 33 35  1  0  0  0
 35 56  1  0  0  0
 36 37  2  0  0  0
 36 38  1  0  0  0
 38 57  1  0  0  0
 39 40  1  0  0  0
 40 41  2  0  0  0
 40 42  1  0  0  0
 42 43  1  0  0  0
 43 44  1  0  0  0
 43 48  1  0  0  0
 44 45  1  0  0  0
 45 46  2  0  0  0
 45 47  1  0  0  0
 47 58  1  0  0  0
 48 49  2  0  0  0
 48 50  1  0  0  0
 50 59  1  0  0  0
M  END
>  <AUTHOR>
    GENERATED BY OPEN BABEL 2.4.1

>  <CHROM.1>
73.18757604,0.65482240,84.33687185,36.87529684,73.29639098,-74.81046201,-78.19050193
57.50086600,126.41392900,6.97924931,150.99758489,53.06222312,-66.68356287
-31.17635572,-66.31697347,-124.96282513,-112.86170089,-172.85496829,70.08152895
146.00227505,45.08660122,-173.64284617,-119.66603460,-36.90107434,-76.98201088
-37.23657020,143.07038451,-77.48880759,75.46952197,-176.73633253,3.93218025
-120.53775679,95.13315416,172.08237615,-64.20446410,-78.10858070,-125.34754811
-173.44364906,177.80543409,2.13572792,-8.45829798,2.08952908,-0.10450557
-1.21910546,1.39637787

>  <COMPND>
    UNNAMED

>  <MASTER>
        0    0    0    0    0    0    0    0  109    0  109    0

>  <Name>
FB1.pdb

>  <RI>
0

>  <Rbt.Current_Directory>
/home/fc/tossine/FB1_39/p3/1_clust05

>  <Rbt.Executable>
rbdock/0.1.0

>  <Rbt.Library>
librxdock.so/0.1.0

>  <Rbt.Parameter_File>
/cluster/rxdock/data/scripts/dock.prm

>  <Rbt.Receptor>
rx_0.prm

>  <SCORE>
63.8396

>  <SCORE.INTER>
26.893

>  <SCORE.INTER.CONST>
1

>  <SCORE.INTER.POLAR>
-2.9598

>  <SCORE.INTER.REPUL>
0.470508

>  <SCORE.INTER.ROT>
32

>  <SCORE.INTER.VDW>
-2.79624

>  <SCORE.INTER.norm>
0.53786

>  <SCORE.INTRA>
33.8919

>  <SCORE.INTRA.DIHEDRAL>
53.2621

>  <SCORE.INTRA.DIHEDRAL.0>
47.3121

>  <SCORE.INTRA.POLAR>
1.14104

>  <SCORE.INTRA.POLAR.0>
-1.47808

>  <SCORE.INTRA.REPUL>
0

>  <SCORE.INTRA.REPUL.0>
0

>  <SCORE.INTRA.VDW>
3.38131

>  <SCORE.INTRA.VDW.0>
-2.78316

>  <SCORE.INTRA.norm>
0.677837

>  <SCORE.RESTR>
3.05473

>  <SCORE.RESTR.CAVITY>
3.05473

>  <SCORE.RESTR.norm>
0.0610946

>  <SCORE.SYSTEM>
0

>  <SCORE.SYSTEM.CONST>
0

>  <SCORE.SYSTEM.DIHEDRAL>
0

>  <SCORE.SYSTEM.norm>
0

>  <SCORE.heavy>
50

>  <SCORE.norm>
1.27679

$$$$
