FB1.pdb
  RxDock  10072009533D
librxdock.so/0.1.0
 59 58  0  0  0  0  0  0  0  0999 V2000
    0.5056   -5.8853    5.3760 C   0  0  0  0  0  0
    0.7914   -7.0215    4.3969 C   0  0  0  0  0  0
    1.6411   -6.5471    3.2065 C   0  0  0  0  0  0
    2.1948   -7.7070    2.3418 C   0  0  0  0  0  0
    1.3281   -8.0673    1.0850 C   0  0  0  0  0  0
    0.9725   -6.7553    0.3481 C   0  0  0  0  0  0
    2.0328   -9.0962    0.1038 C   0  0  0  0  0  0
    1.0914   -9.8646   -0.9400 C   0  0  0  0  0  0
    1.3356   -9.9396   -2.5094 C   0  0  0  0  0  0
   -0.0251   -9.8267   -3.4352 C   0  0  0  0  0  0
   -1.1989  -10.4023   -2.6447 C   0  0  0  0  0  0
   -0.3986   -8.3676   -3.9610 C   0  0  0  0  0  0
   -0.9814   -8.0569   -5.4383 C   0  0  0  0  0  0
   -0.3836   -8.7095   -6.7317 C   0  0  0  0  0  0
   -1.0567   -8.3602   -8.1368 C   0  0  0  0  0  0
   -0.3284   -8.5028   -9.5310 C   0  0  0  0  0  0
   -1.0560   -8.0482  -10.8237 C   0  0  0  0  0  0
   -0.1956   -8.0232  -12.1460 C   0  0  0  0  0  0
    1.2975   -7.7147  -11.9793 C   0  0  0  0  0  0
    1.7040   -6.3309  -11.3978 C   0  0  0  0  0  0
    2.9800   -6.1866  -10.5167 C   0  0  0  0  0  0
    3.3284   -4.7787  -10.0543 C   0  0  0  0  0  0
    2.9394   -7.1214   -9.3761 N   0  0  0  0  0  0
    1.9559   -5.5027  -12.5617 O   0  0  0  0  0  0
   -0.3281   -9.2984  -12.7833 O   0  0  0  0  0  0
   -2.3499   -8.4948   -5.3953 O   0  0  0  0  0  0
    1.0613  -11.2538   -0.5138 O   0  0  0  0  0  0
    0.7384  -11.4941    0.7836 C   0  0  0  0  0  0
   -0.1646  -10.9716    1.4089 O   0  0  0  0  0  0
    1.6229  -12.5961    1.2981 C   0  0  0  0  0  0
    1.7852  -12.5581    2.8260 C   0  0  0  0  0  0
    0.7270  -13.3991    3.5515 C   0  0  0  0  0  0
   -0.6682  -12.9194    3.2251 C   0  0  0  0  0  0
   -1.5042  -13.6067    2.6484 O   0  0  0  0  0  0
   -0.9097  -11.6635    3.6291 O   0  0  0  0  0  0
    3.1865  -13.1137    3.1153 C   0  0  0  0  0  0
    3.8627  -13.6880    2.2755 O   0  0  0  0  0  0
    3.5911  -12.9608    4.3838 O   0  0  0  0  0  0
    3.2104   -8.4840   -0.5583 O   0  0  0  0  0  0
    4.2836   -8.1006    0.2286 C   0  0  0  0  0  0
    4.6576   -8.6927    1.2325 O   0  0  0  0  0  0
    4.9698   -6.8330   -0.2974 C   0  0  0  0  0  0
    4.0512   -5.8367   -1.0709 C   0  0  0  0  0  0
    4.1561   -4.3398   -0.7265 C   0  0  0  0  0  0
    3.6864   -4.0235    0.6642 C   0  0  0  0  0  0
    2.5632   -4.2307    1.1024 O   0  0  0  0  0  0
    4.6543   -3.4872    1.4231 O   0  0  0  0  0  0
    4.1244   -5.9563   -2.5981 C   0  0  0  0  0  0
    3.2685   -6.5109   -3.2588 O   0  0  0  0  0  0
    5.1549   -5.3088   -3.1813 O   0  0  0  0  0  0
    3.2870   -6.6477   -8.5434 H   0  0  0  0  0  0
    3.6076   -7.8759   -9.5482 H   0  0  0  0  0  0
    1.0680   -5.1968  -12.8436 H   0  0  0  0  0  0
    0.1681   -9.9536  -12.2589 H   0  0  0  0  0  0
   -2.3597   -9.4231   -5.1077 H   0  0  0  0  0  0
   -0.1587  -11.2133    4.0613 H   0  0  0  0  0  0
    4.5437  -13.1777    4.5393 H   0  0  0  0  0  0
    4.5401   -3.8540    2.3252 H   0  0  0  0  0  0
    5.8437   -4.9750   -2.5646 H   0  0  0  0  0  0
  1  2  1  0  0  0
  2  3  1  0  0  0
  3  4  1  0  0  0
  4  5  1  0  0  0
  5  6  1  0  0  0
  5  7  1  0  0  0
  7  8  1  0  0  0
  7 39  1  0  0  0
  8  9  1  0  0  0
  8 27  1  0  0  0
  9 10  1  0  0  0
 10 11  1  0  0  0
 10 12  1  0  0  0
 12 13  1  0  0  0
 13 14  1  0  0  0
 13 26  1  0  0  0
 14 15  1  0  0  0
 15 16  1  0  0  0
 16 17  1  0  0  0
 17 18  1  0  0  0
 18 19  1  0  0  0
 18 25  1  0  0  0
 19 20  1  0  0  0
 20 21  1  0  0  0
 20 24  1  0  0  0
 21 22  1  0  0  0
 21 23  1  0  0  0
 23 51  1  0  0  0
 23 52  1  0  0  0
 24 53  1  0  0  0
 25 54  1  0  0  0
 26 55  1  0  0  0
 27 28  1  0  0  0
 28 29  2  0  0  0
 28 30  1  0  0  0
 30 31  1  0  0  0
 31 32  1  0  0  0
 31 36  1  0  0  0
 32 33  1  0  0  0
 33 34  2  0  0  0
 33 35  1  0  0  0
 35 56  1  0  0  0
 36 37  2  0  0  0
 36 38  1  0  0  0
 38 57  1  0  0  0
 39 40  1  0  0  0
 40 41  2  0  0  0
 40 42  1  0  0  0
 42 43  1  0  0  0
 43 44  1  0  0  0
 43 48  1  0  0  0
 44 45  1  0  0  0
 45 46  2  0  0  0
 45 47  1  0  0  0
 47 58  1  0  0  0
 48 49  2  0  0  0
 48 50  1  0  0  0
 50 59  1  0  0  0
M  END
>  <AUTHOR>
    GENERATED BY OPEN BABEL 2.4.1

>  <CHROM.1>
168.37211373,95.24446433,47.28287343,161.71092837,127.95591120,64.07462980
-140.74506084,52.16801237,-29.75301250,140.73517268,-44.46438463,178.58554882
-54.81970356,158.07130408,-176.18980837,171.35702860,-31.15746140,-62.31435492
-71.94475863,147.11794151,177.04837943,81.99874987,-139.18116343,44.41584326
155.72550166,90.69798800,-59.05767437,-12.46024454,117.23684279,1.23591210
-170.27619014,34.81693051,29.33327126,134.06397956,-66.49946833,102.62743847
-59.90317211,-142.26739398,11.22448983,1.60275615,-8.52434523,-2.25298684
-1.45653341,-1.02413488,-1.25590290

>  <COMPND>
    UNNAMED

>  <MASTER>
        0    0    0    0    0    0    0    0  109    0  109    0

>  <Name>
FB1.pdb

>  <RI>
0

>  <Rbt.Current_Directory>
/home/fc/tossine/FB1_39/p3/1_clust05

>  <Rbt.Executable>
rbdock/0.1.0

>  <Rbt.Library>
librxdock.so/0.1.0

>  <Rbt.Parameter_File>
/cluster/rxdock/data/scripts/dock.prm

>  <Rbt.Receptor>
rx_4.prm

>  <SCORE>
38.6065

>  <SCORE.INTER>
6.56842

>  <SCORE.INTER.CONST>
1

>  <SCORE.INTER.POLAR>
-2.17993

>  <SCORE.INTER.REPUL>
0.856083

>  <SCORE.INTER.ROT>
32

>  <SCORE.INTER.VDW>
-27.7002

>  <SCORE.INTER.norm>
0.131368

>  <SCORE.INTRA>
25.841

>  <SCORE.INTRA.DIHEDRAL>
37.2328

>  <SCORE.INTRA.DIHEDRAL.0>
47.3121

>  <SCORE.INTRA.POLAR>
1.47808

>  <SCORE.INTRA.POLAR.0>
-1.47808

>  <SCORE.INTRA.REPUL>
0

>  <SCORE.INTRA.REPUL.0>
0

>  <SCORE.INTRA.VDW>
2.19916

>  <SCORE.INTRA.VDW.0>
-2.78316

>  <SCORE.INTRA.norm>
0.51682

>  <SCORE.RESTR>
6.19708

>  <SCORE.RESTR.CAVITY>
6.19708

>  <SCORE.RESTR.norm>
0.123942

>  <SCORE.SYSTEM>
0

>  <SCORE.SYSTEM.CONST>
0

>  <SCORE.SYSTEM.DIHEDRAL>
0

>  <SCORE.SYSTEM.norm>
0

>  <SCORE.heavy>
50

>  <SCORE.norm>
0.77213

$$$$
