FB1.pdb
  RxDock  10072008433D
librxdock.so/0.1.0
 59 58  0  0  0  0  0  0  0  0999 V2000
    5.1730  -16.3843    0.3264 C   0  0  0  0  0  0
    4.3174  -17.2811    1.2181 C   0  0  0  0  0  0
    3.1453  -16.5085    1.8454 C   0  0  0  0  0  0
    2.0430  -16.1249    0.8269 C   0  0  0  0  0  0
    2.3712  -14.8764   -0.0643 C   0  0  0  0  0  0
    1.5259  -14.9661   -1.3558 C   0  0  0  0  0  0
    2.1346  -13.4918    0.6738 C   0  0  0  0  0  0
    3.1136  -13.1426    1.8927 C   0  0  0  0  0  0
    4.6676  -13.4752    1.9424 C   0  0  0  0  0  0
    5.6383  -12.4017    1.1506 C   0  0  0  0  0  0
    5.2941  -10.9922    1.6290 C   0  0  0  0  0  0
    7.2095  -12.6432    1.2845 C   0  0  0  0  0  0
    7.8715  -13.9215    2.0235 C   0  0  0  0  0  0
    9.4013  -14.0015    2.3543 C   0  0  0  0  0  0
   10.3544  -12.8392    1.8158 C   0  0  0  0  0  0
   11.7785  -12.5092    2.4138 C   0  0  0  0  0  0
   12.4329  -11.1343    2.1158 C   0  0  0  0  0  0
   13.5788  -10.6710    3.0964 C   0  0  0  0  0  0
   13.9281   -9.1777    3.0757 C   0  0  0  0  0  0
   14.8166   -8.6124    4.2200 C   0  0  0  0  0  0
   15.2321   -7.1115    4.2314 C   0  0  0  0  0  0
   14.1509   -6.1121    4.6185 C   0  0  0  0  0  0
   16.4502   -6.9095    5.0387 N   0  0  0  0  0  0
   14.0257   -8.7922    5.4225 O   0  0  0  0  0  0
   13.1927  -11.0294    4.4276 O   0  0  0  0  0  0
    7.2079  -13.9971    3.2965 O   0  0  0  0  0  0
    3.0484  -11.7010    2.0661 O   0  0  0  0  0  0
    2.2833  -11.2366    3.0880 C   0  0  0  0  0  0
    1.9757  -11.8495    4.0926 O   0  0  0  0  0  0
    1.9583   -9.7928    2.8212 C   0  0  0  0  0  0
    3.2124   -8.9447    2.5555 C   0  0  0  0  0  0
    3.0288   -7.9743    1.3816 C   0  0  0  0  0  0
    1.8471   -7.0606    1.6095 C   0  0  0  0  0  0
    0.7260   -7.2774    1.1624 O   0  0  0  0  0  0
    2.1400   -5.9834    2.3530 O   0  0  0  0  0  0
    3.4735   -8.1610    3.8491 C   0  0  0  0  0  0
    2.6257   -7.9993    4.7137 O   0  0  0  0  0  0
    4.6982   -7.6232    3.9322 O   0  0  0  0  0  0
    2.0404  -12.3759   -0.2987 O   0  0  0  0  0  0
    1.2837  -11.2670    0.0417 C   0  0  0  0  0  0
    0.3085  -11.2899    0.7812 O   0  0  0  0  0  0
    1.8033   -9.9815   -0.6154 C   0  0  0  0  0  0
    1.1694   -9.6220   -1.9950 C   0  0  0  0  0  0
   -0.3318   -9.8990   -2.1956 C   0  0  0  0  0  0
   -0.8584   -9.3639   -3.4958 C   0  0  0  0  0  0
   -0.5204   -9.7377   -4.6106 O   0  0  0  0  0  0
   -1.7866   -8.4110   -3.3203 O   0  0  0  0  0  0
    1.4310   -8.1847   -2.4618 C   0  0  0  0  0  0
    0.6983   -7.2562   -2.1829 O   0  0  0  0  0  0
    2.5936   -7.9915   -3.1193 O   0  0  0  0  0  0
   17.2617   -6.9004    4.4223 H   0  0  0  0  0  0
   16.5840   -7.7269    5.6382 H   0  0  0  0  0  0
   14.5980   -8.4602    6.1461 H   0  0  0  0  0  0
   13.9953  -11.0555    4.9805 H   0  0  0  0  0  0
    6.3220  -14.3696    3.1521 H   0  0  0  0  0  0
    2.2390   -6.1520    3.3097 H   0  0  0  0  0  0
    4.7100   -6.6350    3.9767 H   0  0  0  0  0  0
   -1.9497   -8.0116   -4.2008 H   0  0  0  0  0  0
    2.7699   -7.0652   -3.3969 H   0  0  0  0  0  0
  1  2  1  0  0  0
  2  3  1  0  0  0
  3  4  1  0  0  0
  4  5  1  0  0  0
  5  6  1  0  0  0
  5  7  1  0  0  0
  7  8  1  0  0  0
  7 39  1  0  0  0
  8  9  1  0  0  0
  8 27  1  0  0  0
  9 10  1  0  0  0
 10 11  1  0  0  0
 10 12  1  0  0  0
 12 13  1  0  0  0
 13 14  1  0  0  0
 13 26  1  0  0  0
 14 15  1  0  0  0
 15 16  1  0  0  0
 16 17  1  0  0  0
 17 18  1  0  0  0
 18 19  1  0  0  0
 18 25  1  0  0  0
 19 20  1  0  0  0
 20 21  1  0  0  0
 20 24  1  0  0  0
 21 22  1  0  0  0
 21 23  1  0  0  0
 23 51  1  0  0  0
 23 52  1  0  0  0
 24 53  1  0  0  0
 25 54  1  0  0  0
 26 55  1  0  0  0
 27 28  1  0  0  0
 28 29  2  0  0  0
 28 30  1  0  0  0
 30 31  1  0  0  0
 31 32  1  0  0  0
 31 36  1  0  0  0
 32 33  1  0  0  0
 33 34  2  0  0  0
 33 35  1  0  0  0
 35 56  1  0  0  0
 36 37  2  0  0  0
 36 38  1  0  0  0
 38 57  1  0  0  0
 39 40  1  0  0  0
 40 41  2  0  0  0
 40 42  1  0  0  0
 42 43  1  0  0  0
 43 44  1  0  0  0
 43 48  1  0  0  0
 44 45  1  0  0  0
 45 46  2  0  0  0
 45 47  1  0  0  0
 47 58  1  0  0  0
 48 49  2  0  0  0
 48 50  1  0  0  0
 50 59  1  0  0  0
M  END
>  <AUTHOR>
    GENERATED BY OPEN BABEL 2.4.1

>  <CHROM.1>
70.92924875,-78.94302153,156.83674263,67.58406704,38.01484109,151.76882820
81.63373388,101.85902056,51.20731497,5.53300275,-169.05049526,-5.94978284
76.30075912,159.68431737,-162.05094224,159.96133036,-162.15348294,166.95544359
159.45031755,178.48588070,74.49565820,178.35185766,96.49641958,23.56191523
-53.37218948,136.80651650,57.00988357,-18.11437152,-95.68782510,-75.62055692
117.20024380,-29.37660550,91.64634661,37.71217657,173.15209344,-89.40783064
64.35302148,169.92297063,-178.47821637,5.21517337,-10.74896038,1.41354478
-3.06730795,-0.35766399,0.02328544

>  <COMPND>
    UNNAMED

>  <MASTER>
        0    0    0    0    0    0    0    0  109    0  109    0

>  <Name>
FB1.pdb

>  <RI>
0

>  <Rbt.Current_Directory>
/home/fc/tossine/FB1_39/p3/1_clust05

>  <Rbt.Executable>
rbdock/0.1.0

>  <Rbt.Library>
librxdock.so/0.1.0

>  <Rbt.Parameter_File>
/cluster/rxdock/data/scripts/dock.prm

>  <Rbt.Receptor>
rx_2.prm

>  <SCORE>
119.608

>  <SCORE.INTER>
74.6668

>  <SCORE.INTER.CONST>
1

>  <SCORE.INTER.POLAR>
-1.79606

>  <SCORE.INTER.REPUL>
1.58525

>  <SCORE.INTER.ROT>
32

>  <SCORE.INTER.VDW>
35.4472

>  <SCORE.INTER.norm>
1.49334

>  <SCORE.INTRA>
44.5133

>  <SCORE.INTRA.DIHEDRAL>
60.7855

>  <SCORE.INTRA.DIHEDRAL.0>
47.3121

>  <SCORE.INTRA.POLAR>
1.47808

>  <SCORE.INTRA.POLAR.0>
-1.47808

>  <SCORE.INTRA.REPUL>
0

>  <SCORE.INTRA.REPUL.0>
0

>  <SCORE.INTRA.VDW>
9.09512

>  <SCORE.INTRA.VDW.0>
-2.78316

>  <SCORE.INTRA.norm>
0.890267

>  <SCORE.RESTR>
0.428187

>  <SCORE.RESTR.CAVITY>
0.428187

>  <SCORE.RESTR.norm>
0.00856374

>  <SCORE.SYSTEM>
0

>  <SCORE.SYSTEM.CONST>
0

>  <SCORE.SYSTEM.DIHEDRAL>
0

>  <SCORE.SYSTEM.norm>
0

>  <SCORE.heavy>
50

>  <SCORE.norm>
2.39217

$$$$
