FB1.pdb
  RxDock  10072007303D
librxdock.so/0.1.0
 59 58  0  0  0  0  0  0  0  0999 V2000
    4.9669   -3.0234    0.8093 C   0  0  0  0  0  0
    3.4746   -3.2863    0.9975 C   0  0  0  0  0  0
    2.8061   -3.7360   -0.3121 C   0  0  0  0  0  0
    3.2202   -5.1600   -0.7596 C   0  0  0  0  0  0
    2.9152   -6.2949    0.2794 C   0  0  0  0  0  0
    1.4138   -6.2298    0.6427 C   0  0  0  0  0  0
    3.3135   -7.7438   -0.2304 C   0  0  0  0  0  0
    3.8922   -8.7635    0.8612 C   0  0  0  0  0  0
    3.2480   -9.0386    2.2886 C   0  0  0  0  0  0
    1.6416   -8.6842    2.4111 C   0  0  0  0  0  0
    0.9132   -9.9143    2.9500 C   0  0  0  0  0  0
    1.2680   -7.4108    3.2963 C   0  0  0  0  0  0
    1.4703   -7.3291    4.8997 C   0  0  0  0  0  0
    0.5892   -8.1524    5.9007 C   0  0  0  0  0  0
    1.0755   -9.6171    6.3097 C   0  0  0  0  0  0
    2.1846   -9.9148    7.3941 C   0  0  0  0  0  0
    2.0426   -9.3144    8.8178 C   0  0  0  0  0  0
    0.7147   -9.6560    9.5983 C   0  0  0  0  0  0
    0.7193   -9.3688   11.1050 C   0  0  0  0  0  0
    1.6130  -10.2521   12.0212 C   0  0  0  0  0  0
    2.3032  -11.5300   11.4592 C   0  0  0  0  0  0
    3.0548  -12.3917   12.4641 C   0  0  0  0  0  0
    1.3508  -12.3411   10.6773 N   0  0  0  0  0  0
    2.7023   -9.3821   12.4214 O   0  0  0  0  0  0
   -0.3536   -8.9160    8.9976 O   0  0  0  0  0  0
    2.8163   -7.7803    5.1258 O   0  0  0  0  0  0
    3.9223  -10.0687    0.2224 O   0  0  0  0  0  0
    2.7281  -10.6829    0.0177 C   0  0  0  0  0  0
    1.6283  -10.1978    0.2040 O   0  0  0  0  0  0
    2.9864  -12.0390   -0.5786 C   0  0  0  0  0  0
    2.3588  -13.1752    0.2447 C   0  0  0  0  0  0
    2.7112  -14.5638   -0.3040 C   0  0  0  0  0  0
    2.6155  -15.6168    0.7754 C   0  0  0  0  0  0
    3.5393  -16.3646    1.0773 O   0  0  0  0  0  0
    1.4181  -15.6567    1.3784 O   0  0  0  0  0  0
    2.9094  -13.0180    1.6688 C   0  0  0  0  0  0
    2.2675  -12.5190    2.5807 O   0  0  0  0  0  0
    4.1757  -13.4294    1.8208 O   0  0  0  0  0  0
    2.2207   -8.3492   -1.0299 O   0  0  0  0  0  0
    2.0033   -7.8763   -2.3134 C   0  0  0  0  0  0
    2.4956   -6.8534   -2.7713 O   0  0  0  0  0  0
    1.0643   -8.7840   -3.1187 C   0  0  0  0  0  0
   -0.4371   -8.3595   -3.1372 C   0  0  0  0  0  0
   -1.4801   -9.3674   -2.6209 C   0  0  0  0  0  0
   -0.8974  -10.3875   -1.6859 C   0  0  0  0  0  0
   -0.8339  -10.2856   -0.4684 O   0  0  0  0  0  0
   -0.4497  -11.4766   -2.3291 O   0  0  0  0  0  0
   -0.7285   -7.0168   -2.4555 C   0  0  0  0  0  0
   -0.2568   -6.7066   -1.3794 O   0  0  0  0  0  0
   -1.4635   -6.1469   -3.1796 O   0  0  0  0  0  0
    1.7289  -13.2801   10.5604 H   0  0  0  0  0  0
    1.2968  -11.9591    9.7304 H   0  0  0  0  0  0
    2.2631   -8.6202   12.8549 H   0  0  0  0  0  0
   -0.5853   -9.3467    8.1542 H   0  0  0  0  0  0
    3.0348   -7.6190    6.0590 H   0  0  0  0  0  0
    1.3340  -16.3152    2.0945 H   0  0  0  0  0  0
    4.5980  -13.1512    2.6711 H   0  0  0  0  0  0
   -0.1361  -12.1007   -1.6409 H   0  0  0  0  0  0
   -1.6732   -5.2985   -2.7296 H   0  0  0  0  0  0
  1  2  1  0  0  0
  2  3  1  0  0  0
  3  4  1  0  0  0
  4  5  1  0  0  0
  5  6  1  0  0  0
  5  7  1  0  0  0
  7  8  1  0  0  0
  7 39  1  0  0  0
  8  9  1  0  0  0
  8 27  1  0  0  0
  9 10  1  0  0  0
 10 11  1  0  0  0
 10 12  1  0  0  0
 12 13  1  0  0  0
 13 14  1  0  0  0
 13 26  1  0  0  0
 14 15  1  0  0  0
 15 16  1  0  0  0
 16 17  1  0  0  0
 17 18  1  0  0  0
 18 19  1  0  0  0
 18 25  1  0  0  0
 19 20  1  0  0  0
 20 21  1  0  0  0
 20 24  1  0  0  0
 21 22  1  0  0  0
 21 23  1  0  0  0
 23 51  1  0  0  0
 23 52  1  0  0  0
 24 53  1  0  0  0
 25 54  1  0  0  0
 26 55  1  0  0  0
 27 28  1  0  0  0
 28 29  2  0  0  0
 28 30  1  0  0  0
 30 31  1  0  0  0
 31 32  1  0  0  0
 31 36  1  0  0  0
 32 33  1  0  0  0
 33 34  2  0  0  0
 33 35  1  0  0  0
 35 56  1  0  0  0
 36 37  2  0  0  0
 36 38  1  0  0  0
 38 57  1  0  0  0
 39 40  1  0  0  0
 40 41  2  0  0  0
 40 42  1  0  0  0
 42 43  1  0  0  0
 43 44  1  0  0  0
 43 48  1  0  0  0
 44 45  1  0  0  0
 45 46  2  0  0  0
 45 47  1  0  0  0
 47 58  1  0  0  0
 48 49  2  0  0  0
 48 50  1  0  0  0
 50 59  1  0  0  0
M  END
>  <AUTHOR>
    GENERATED BY OPEN BABEL 2.4.1

>  <CHROM.1>
70.36626236,58.36044335,54.60477476,143.94356658,47.48060731,74.05853310
22.95571661,-72.34539239,126.80963481,-67.48635827,-70.44323872,89.32648560
171.28052497,80.18349826,53.77630785,56.38603945,165.22903071,-69.28542695
75.34790430,-9.57358348,-174.75994456,57.57170126,-163.22842439,7.22525267
124.08983903,-175.66798775,155.73914054,101.62834710,-124.26190845,-178.69146576
167.19082017,-12.42004146,96.18334712,-122.04251609,22.78926618,-44.94924731
91.23644201,-176.96238436,178.13751063,1.79040749,-9.50694551,2.50040772
2.75830016,1.52388347,-2.56885074

>  <COMPND>
    UNNAMED

>  <MASTER>
        0    0    0    0    0    0    0    0  109    0  109    0

>  <Name>
FB1.pdb

>  <RI>
0

>  <Rbt.Current_Directory>
/home/fc/tossine/FB1_39/p3/1_clust05

>  <Rbt.Executable>
rbdock/0.1.0

>  <Rbt.Library>
librxdock.so/0.1.0

>  <Rbt.Parameter_File>
/cluster/rxdock/data/scripts/dock.prm

>  <Rbt.Receptor>
rx_0.prm

>  <SCORE>
30.1727

>  <SCORE.INTER>
9.34452

>  <SCORE.INTER.CONST>
1

>  <SCORE.INTER.POLAR>
-2.83513

>  <SCORE.INTER.REPUL>
0.734677

>  <SCORE.INTER.ROT>
32

>  <SCORE.INTER.VDW>
-22.0894

>  <SCORE.INTER.norm>
0.18689

>  <SCORE.INTRA>
16.948

>  <SCORE.INTRA.DIHEDRAL>
9.63717

>  <SCORE.INTRA.DIHEDRAL.0>
47.3121

>  <SCORE.INTRA.POLAR>
1.47808

>  <SCORE.INTRA.POLAR.0>
-1.47808

>  <SCORE.INTRA.REPUL>
0

>  <SCORE.INTRA.REPUL.0>
0

>  <SCORE.INTRA.VDW>
7.10399

>  <SCORE.INTRA.VDW.0>
-2.78316

>  <SCORE.INTRA.norm>
0.338961

>  <SCORE.RESTR>
3.88018

>  <SCORE.RESTR.CAVITY>
3.88018

>  <SCORE.RESTR.norm>
0.0776037

>  <SCORE.SYSTEM>
0

>  <SCORE.SYSTEM.CONST>
0

>  <SCORE.SYSTEM.DIHEDRAL>
0

>  <SCORE.SYSTEM.norm>
0

>  <SCORE.heavy>
50

>  <SCORE.norm>
0.603455

$$$$
