FB1.pdb
  RxDock  09132000323D
librxdock.so/0.1.0
 59 58  0  0  0  0  0  0  0  0999 V2000
    3.6347   -4.5611   -1.6066 C   0  0  0  0  0  0
    4.0477   -6.0280   -1.7021 C   0  0  0  0  0  0
    4.7042   -6.5205   -0.4019 C   0  0  0  0  0  0
    3.7092   -7.1945    0.5756 C   0  0  0  0  0  0
    3.0069   -8.4826    0.0208 C   0  0  0  0  0  0
    4.0755   -9.5890   -0.1359 C   0  0  0  0  0  0
    1.7997   -8.9831    0.9208 C   0  0  0  0  0  0
    0.8006  -10.0507    0.2665 C   0  0  0  0  0  0
    0.7062  -10.3843   -1.2853 C   0  0  0  0  0  0
    0.6473   -9.0702   -2.2809 C   0  0  0  0  0  0
    0.2007   -9.5316   -3.6672 C   0  0  0  0  0  0
   -0.2746   -7.8618   -1.7965 C   0  0  0  0  0  0
    0.0063   -6.3078   -2.1497 C   0  0  0  0  0  0
   -0.6451   -5.5959   -3.3846 C   0  0  0  0  0  0
   -0.4886   -6.2763   -4.8205 C   0  0  0  0  0  0
   -1.5044   -7.3256   -5.4221 C   0  0  0  0  0  0
   -3.0032   -6.9479   -5.5576 C   0  0  0  0  0  0
   -3.4660   -6.3893   -6.9586 C   0  0  0  0  0  0
   -4.9726   -6.4326   -7.2433 C   0  0  0  0  0  0
   -5.4411   -6.7885   -8.6828 C   0  0  0  0  0  0
   -6.9171   -7.2040   -8.9545 C   0  0  0  0  0  0
   -7.9331   -6.0741   -9.0469 C   0  0  0  0  0  0
   -7.0056   -8.0901  -10.1308 N   0  0  0  0  0  0
   -5.2481   -5.5691   -9.4441 O   0  0  0  0  0  0
   -3.0227   -5.0318   -7.0613 O   0  0  0  0  0  0
   -0.4645   -5.5776   -1.0043 O   0  0  0  0  0  0
    1.1043  -11.3275    0.8911 O   0  0  0  0  0  0
    0.6552  -11.5161    2.1592 C   0  0  0  0  0  0
    0.1709  -10.6683    2.8845 O   0  0  0  0  0  0
    0.7614  -12.9795    2.4890 C   0  0  0  0  0  0
    2.0357  -13.6222    1.9184 C   0  0  0  0  0  0
    2.0110  -13.7199    0.3876 C   0  0  0  0  0  0
    2.8414  -14.8854   -0.0976 C   0  0  0  0  0  0
    3.6425  -15.4881    0.6086 O   0  0  0  0  0  0
    2.6179  -15.2029   -1.3814 O   0  0  0  0  0  0
    3.1980  -12.7265    2.3689 C   0  0  0  0  0  0
    3.5057  -11.6937    1.7937 O   0  0  0  0  0  0
    3.8830  -13.1966    3.4204 O   0  0  0  0  0  0
    2.2723   -9.4139    2.2591 O   0  0  0  0  0  0
    3.0023   -8.5165    3.0206 C   0  0  0  0  0  0
    4.1477   -8.7037    3.4096 O   0  0  0  0  0  0
    2.2131   -7.2381    3.3324 C   0  0  0  0  0  0
    2.9373   -6.2009    4.2458 C   0  0  0  0  0  0
    3.4601   -4.9063    3.5969 C   0  0  0  0  0  0
    4.2338   -4.0429    4.5511 C   0  0  0  0  0  0
    4.1129   -2.8320    4.6763 O   0  0  0  0  0  0
    5.0939   -4.7493    5.3005 O   0  0  0  0  0  0
    2.1497   -5.7941    5.4974 C   0  0  0  0  0  0
    1.6272   -4.7042    5.6235 O   0  0  0  0  0  0
    1.9792   -6.7674    6.4165 O   0  0  0  0  0  0
   -7.6766   -8.8329   -9.9398 H   0  0  0  0  0  0
   -6.1094   -8.5684  -10.2475 H   0  0  0  0  0  0
   -5.5532   -5.7922  -10.3488 H   0  0  0  0  0  0
   -3.4669   -4.5133   -6.3653 H   0  0  0  0  0  0
    0.1608   -5.7261   -0.2753 H   0  0  0  0  0  0
    2.0315  -14.5906   -1.8660 H   0  0  0  0  0  0
    4.7322  -12.7225    3.6017 H   0  0  0  0  0  0
    5.5941   -4.1017    5.8405 H   0  0  0  0  0  0
    2.4772   -7.5976    6.2459 H   0  0  0  0  0  0
  1  2  1  0  0  0
  2  3  1  0  0  0
  3  4  1  0  0  0
  4  5  1  0  0  0
  5  6  1  0  0  0
  5  7  1  0  0  0
  7  8  1  0  0  0
  7 39  1  0  0  0
  8  9  1  0  0  0
  8 27  1  0  0  0
  9 10  1  0  0  0
 10 11  1  0  0  0
 10 12  1  0  0  0
 12 13  1  0  0  0
 13 14  1  0  0  0
 13 26  1  0  0  0
 14 15  1  0  0  0
 15 16  1  0  0  0
 16 17  1  0  0  0
 17 18  1  0  0  0
 18 19  1  0  0  0
 18 25  1  0  0  0
 19 20  1  0  0  0
 20 21  1  0  0  0
 20 24  1  0  0  0
 21 22  1  0  0  0
 21 23  1  0  0  0
 23 51  1  0  0  0
 23 52  1  0  0  0
 24 53  1  0  0  0
 25 54  1  0  0  0
 26 55  1  0  0  0
 27 28  1  0  0  0
 28 29  2  0  0  0
 28 30  1  0  0  0
 30 31  1  0  0  0
 31 32  1  0  0  0
 31 36  1  0  0  0
 32 33  1  0  0  0
 33 34  2  0  0  0
 33 35  1  0  0  0
 35 56  1  0  0  0
 36 37  2  0  0  0
 36 38  1  0  0  0
 38 57  1  0  0  0
 39 40  1  0  0  0
 40 41  2  0  0  0
 40 42  1  0  0  0
 42 43  1  0  0  0
 43 44  1  0  0  0
 43 48  1  0  0  0
 44 45  1  0  0  0
 45 46  2  0  0  0
 45 47  1  0  0  0
 47 58  1  0  0  0
 48 49  2  0  0  0
 48 50  1  0  0  0
 50 59  1  0  0  0
M  END
>  <AUTHOR>
    GENERATED BY OPEN BABEL 2.4.1

>  <CHROM.1>
93.84825094,61.60849211,67.53077748,165.18486957,-15.39300702,55.43907906
-46.89636173,75.82329326,-165.55034446,149.95408672,93.63721879,-52.70857287
72.37400821,89.90273817,56.49671748,95.25671110,161.40905489,-141.68519892
-63.14985947,164.28127693,79.63380601,-179.39155675,139.29229576,-9.84216543
38.63878687,-69.01458335,-151.78044236,-81.43847964,-14.16179122,6.51264980
168.50972464,-119.72122122,177.14318137,107.28933907,-175.29409669,-107.65110526
-134.89594338,176.03904477,7.82708635,0.80934830,-8.36116629,-0.63457302
-0.03903274,-0.96021819,0.14108092

>  <COMPND>
    UNNAMED

>  <MASTER>
        0    0    0    0    0    0    0    0  109    0  109    0

>  <Name>
FB1.pdb

>  <RI>
0

>  <Rbt.Current_Directory>
/home/fc/tossine/FB1_39/p3/1_clust05

>  <Rbt.Executable>
rbdock/0.1.0

>  <Rbt.Library>
librxdock.so/0.1.0

>  <Rbt.Parameter_File>
/cluster/rxdock/data/scripts/dock.prm

>  <Rbt.Receptor>
rx_2.prm

>  <SCORE>
52.3222

>  <SCORE.INTER>
17.5844

>  <SCORE.INTER.CONST>
1

>  <SCORE.INTER.POLAR>
-1.89601

>  <SCORE.INTER.REPUL>
0.0341918

>  <SCORE.INTER.ROT>
32

>  <SCORE.INTER.VDW>
-13.5401

>  <SCORE.INTER.norm>
0.351688

>  <SCORE.INTRA>
20.1578

>  <SCORE.INTRA.DIHEDRAL>
27.2879

>  <SCORE.INTRA.DIHEDRAL.0>
47.3121

>  <SCORE.INTRA.POLAR>
1.47808

>  <SCORE.INTRA.POLAR.0>
-1.47808

>  <SCORE.INTRA.REPUL>
0.0207192

>  <SCORE.INTRA.REPUL.0>
0

>  <SCORE.INTRA.VDW>
1.38479

>  <SCORE.INTRA.VDW.0>
-2.78316

>  <SCORE.INTRA.norm>
0.403156

>  <SCORE.RESTR>
14.58

>  <SCORE.RESTR.CAVITY>
14.58

>  <SCORE.RESTR.norm>
0.291599

>  <SCORE.SYSTEM>
0

>  <SCORE.SYSTEM.CONST>
0

>  <SCORE.SYSTEM.DIHEDRAL>
0

>  <SCORE.SYSTEM.norm>
0

>  <SCORE.heavy>
50

>  <SCORE.norm>
1.04644

$$$$
