FB1.pdb
  RxDock  10072007253D
librxdock.so/0.1.0
 59 58  0  0  0  0  0  0  0  0999 V2000
    2.9539  -15.6391   -0.0942 C   0  0  0  0  0  0
    2.3758  -15.0216    1.1769 C   0  0  0  0  0  0
    1.8370  -13.6033    0.9269 C   0  0  0  0  0  0
    0.9389  -13.0730    2.0722 C   0  0  0  0  0  0
    0.3068  -11.6603    1.8172 C   0  0  0  0  0  0
   -0.8997  -11.4893    2.7690 C   0  0  0  0  0  0
    1.3371  -10.4655    1.9868 C   0  0  0  0  0  0
    2.3506  -10.2037    0.7741 C   0  0  0  0  0  0
    3.5118  -11.1915    0.3225 C   0  0  0  0  0  0
    4.9388  -11.0091    1.1299 C   0  0  0  0  0  0
    4.7263  -10.0173    2.2724 C   0  0  0  0  0  0
    5.6013  -12.3448    1.6973 C   0  0  0  0  0  0
    7.0105  -12.9494    1.1803 C   0  0  0  0  0  0
    8.3229  -12.0944    1.1280 C   0  0  0  0  0  0
    9.7147  -12.8256    1.4064 C   0  0  0  0  0  0
   10.0665  -13.5865    2.7450 C   0  0  0  0  0  0
   10.7354  -14.9848    2.6765 C   0  0  0  0  0  0
   12.2262  -15.0294    2.1621 C   0  0  0  0  0  0
   12.8766  -16.4163    2.0835 C   0  0  0  0  0  0
   12.0612  -17.6425    2.5834 C   0  0  0  0  0  0
   10.5724  -17.8267    2.1651 C   0  0  0  0  0  0
    9.6671  -16.6141    2.3309 C   0  0  0  0  0  0
   10.4744  -18.3751    0.7990 N   0  0  0  0  0  0
   12.7513  -18.7926    2.0315 O   0  0  0  0  0  0
   12.2621  -14.4358    0.8598 O   0  0  0  0  0  0
    7.3022  -14.0299    2.0825 O   0  0  0  0  0  0
    1.5296  -10.0461   -0.4148 O   0  0  0  0  0  0
    0.9968   -8.8166   -0.6381 C   0  0  0  0  0  0
    1.0563   -7.8600    0.1107 O   0  0  0  0  0  0
    0.4024   -8.7992   -2.0193 C   0  0  0  0  0  0
   -0.6183   -7.6656   -2.2084 C   0  0  0  0  0  0
    0.0476   -6.3213   -2.5288 C   0  0  0  0  0  0
    0.5491   -5.6482   -1.2723 C   0  0  0  0  0  0
    1.6631   -5.1459   -1.1703 O   0  0  0  0  0  0
   -0.3445   -5.6497   -0.2722 O   0  0  0  0  0  0
   -1.5173   -8.0978   -3.3750 C   0  0  0  0  0  0
   -1.3810   -9.1590   -3.9645 O   0  0  0  0  0  0
   -2.4379   -7.1906   -3.7293 O   0  0  0  0  0  0
    0.6499   -9.2222    2.4131 O   0  0  0  0  0  0
    0.8543   -8.7658    3.7046 C   0  0  0  0  0  0
    1.2616   -9.4552    4.6305 O   0  0  0  0  0  0
    0.5120   -7.2781    3.8591 C   0  0  0  0  0  0
    1.1453   -6.5619    5.0922 C   0  0  0  0  0  0
    0.9893   -5.0340    5.2001 C   0  0  0  0  0  0
    1.8099   -4.4373    6.3069 C   0  0  0  0  0  0
    1.3698   -3.8357    7.2769 O   0  0  0  0  0  0
    3.1248   -4.6469    6.1411 O   0  0  0  0  0  0
    0.7456   -7.1550    6.4489 C   0  0  0  0  0  0
    1.5579   -7.5474    7.2631 O   0  0  0  0  0  0
   -0.5734   -7.1168    6.7319 O   0  0  0  0  0  0
   10.9313  -17.7367    0.1492 H   0  0  0  0  0  0
    9.4913  -18.3781    0.5180 H   0  0  0  0  0  0
   13.5014  -18.9474    2.6437 H   0  0  0  0  0  0
   13.1772  -14.1515    0.6802 H   0  0  0  0  0  0
    6.5403  -14.6331    2.0856 H   0  0  0  0  0  0
   -1.1299   -6.2118   -0.4161 H   0  0  0  0  0  0
   -2.8317   -6.6890   -2.9728 H   0  0  0  0  0  0
    3.5770   -4.2022    6.8888 H   0  0  0  0  0  0
   -1.1658   -6.9983    5.9565 H   0  0  0  0  0  0
  1  2  1  0  0  0
  2  3  1  0  0  0
  3  4  1  0  0  0
  4  5  1  0  0  0
  5  6  1  0  0  0
  5  7  1  0  0  0
  7  8  1  0  0  0
  7 39  1  0  0  0
  8  9  1  0  0  0
  8 27  1  0  0  0
  9 10  1  0  0  0
 10 11  1  0  0  0
 10 12  1  0  0  0
 12 13  1  0  0  0
 13 14  1  0  0  0
 13 26  1  0  0  0
 14 15  1  0  0  0
 15 16  1  0  0  0
 16 17  1  0  0  0
 17 18  1  0  0  0
 18 19  1  0  0  0
 18 25  1  0  0  0
 19 20  1  0  0  0
 20 21  1  0  0  0
 20 24  1  0  0  0
 21 22  1  0  0  0
 21 23  1  0  0  0
 23 51  1  0  0  0
 23 52  1  0  0  0
 24 53  1  0  0  0
 25 54  1  0  0  0
 26 55  1  0  0  0
 27 28  1  0  0  0
 28 29  2  0  0  0
 28 30  1  0  0  0
 30 31  1  0  0  0
 31 32  1  0  0  0
 31 36  1  0  0  0
 32 33  1  0  0  0
 33 34  2  0  0  0
 33 35  1  0  0  0
 35 56  1  0  0  0
 36 37  2  0  0  0
 36 38  1  0  0  0
 38 57  1  0  0  0
 39 40  1  0  0  0
 40 41  2  0  0  0
 40 42  1  0  0  0
 42 43  1  0  0  0
 43 44  1  0  0  0
 43 48  1  0  0  0
 44 45  1  0  0  0
 45 46  2  0  0  0
 45 47  1  0  0  0
 47 58  1  0  0  0
 48 49  2  0  0  0
 48 50  1  0  0  0
 50 59  1  0  0  0
M  END
>  <AUTHOR>
    GENERATED BY OPEN BABEL 2.4.1

>  <CHROM.1>
165.80326033,-176.79634538,160.79550071,78.32214642,-67.02294452,109.35484309
-86.19311104,83.10524966,7.26994676,114.51642620,52.91016417,146.56738234
54.67254526,-59.31492356,134.42267130,69.50355999,-179.40550394,-3.35823883
158.78838741,46.12658680,-48.86623689,81.41905403,-59.49325893,-5.90955757
160.69184593,82.11652266,-81.14150634,0.76859880,133.65712866,10.40718134
-37.02969364,-20.03089180,-160.02094909,172.21113572,-171.29659526,123.97509204
-118.10207629,178.27596568,19.32528342,3.80359666,-10.65597414,1.74348167
0.33240596,0.64499507,-2.10668217

>  <COMPND>
    UNNAMED

>  <MASTER>
        0    0    0    0    0    0    0    0  109    0  109    0

>  <Name>
FB1.pdb

>  <RI>
0

>  <Rbt.Current_Directory>
/home/fc/tossine/FB1_39/p3/1_clust05

>  <Rbt.Executable>
rbdock/0.1.0

>  <Rbt.Library>
librxdock.so/0.1.0

>  <Rbt.Parameter_File>
/cluster/rxdock/data/scripts/dock.prm

>  <Rbt.Receptor>
rx_0.prm

>  <SCORE>
114.128

>  <SCORE.INTER>
70.3854

>  <SCORE.INTER.CONST>
1

>  <SCORE.INTER.POLAR>
-1.17486

>  <SCORE.INTER.REPUL>
0.315575

>  <SCORE.INTER.ROT>
32

>  <SCORE.INTER.VDW>
35.402

>  <SCORE.INTER.norm>
1.40771

>  <SCORE.INTRA>
38.9417

>  <SCORE.INTRA.DIHEDRAL>
26.0823

>  <SCORE.INTRA.DIHEDRAL.0>
47.3121

>  <SCORE.INTRA.POLAR>
1.47808

>  <SCORE.INTRA.POLAR.0>
-1.47808

>  <SCORE.INTRA.REPUL>
0

>  <SCORE.INTRA.REPUL.0>
0

>  <SCORE.INTRA.VDW>
20.8751

>  <SCORE.INTRA.VDW.0>
-2.78316

>  <SCORE.INTRA.norm>
0.778835

>  <SCORE.RESTR>
4.8008

>  <SCORE.RESTR.CAVITY>
4.8008

>  <SCORE.RESTR.norm>
0.0960161

>  <SCORE.SYSTEM>
0

>  <SCORE.SYSTEM.CONST>
0

>  <SCORE.SYSTEM.DIHEDRAL>
0

>  <SCORE.SYSTEM.norm>
0

>  <SCORE.heavy>
50

>  <SCORE.norm>
2.28256

$$$$
