FB1.pdb
  RxDock  10072012383D
librxdock.so/0.1.0
 59 58  0  0  0  0  0  0  0  0999 V2000
   -9.1143    1.4607    0.5105 C   0  0  0  0  0  0
   -7.6676    1.5896    0.0397 C   0  0  0  0  0  0
   -7.4167    2.9310   -0.6688 C   0  0  0  0  0  0
   -6.9941    4.0684    0.2942 C   0  0  0  0  0  0
   -5.5338    4.6023    0.0870 C   0  0  0  0  0  0
   -4.5543    3.4195    0.2669 C   0  0  0  0  0  0
   -5.3126    5.3142   -1.3138 C   0  0  0  0  0  0
   -5.7451    4.4948   -2.6206 C   0  0  0  0  0  0
   -5.5100    2.9381   -2.8439 C   0  0  0  0  0  0
   -4.0290    2.5339   -3.4476 C   0  0  0  0  0  0
   -3.9626    2.9780   -4.9079 C   0  0  0  0  0  0
   -2.7673    3.1061   -2.6567 C   0  0  0  0  0  0
   -1.9932    2.3062   -1.4821 C   0  0  0  0  0  0
   -1.0370    1.0999   -1.7764 C   0  0  0  0  0  0
    0.4130    1.4098   -2.3686 C   0  0  0  0  0  0
    1.7128    0.5859   -2.0131 C   0  0  0  0  0  0
    1.7549   -0.9380   -2.3020 C   0  0  0  0  0  0
    2.5531   -1.8293   -1.2736 C   0  0  0  0  0  0
    4.0751   -1.6412   -1.2497 C   0  0  0  0  0  0
    4.9255   -2.6192   -0.3902 C   0  0  0  0  0  0
    6.4532   -2.7764   -0.6487 C   0  0  0  0  0  0
    6.8928   -2.8206   -2.1055 C   0  0  0  0  0  0
    7.2202   -1.7650    0.1031 N   0  0  0  0  0  0
    4.8246   -2.1034    0.9617 O   0  0  0  0  0  0
    2.0409   -1.5591    0.0358 O   0  0  0  0  0  0
   -1.1657    3.2943   -0.8454 O   0  0  0  0  0  0
   -7.1829    4.6636   -2.7487 O   0  0  0  0  0  0
   -7.6223    5.8414   -3.2635 C   0  0  0  0  0  0
   -6.9277    6.7705   -3.6290 O   0  0  0  0  0  0
   -9.1179    5.7710   -3.4041 C   0  0  0  0  0  0
   -9.8282    5.5603   -2.0574 C   0  0  0  0  0  0
   -9.1468    6.3142   -0.9082 C   0  0  0  0  0  0
   -9.9342    6.1799    0.3745 C   0  0  0  0  0  0
  -10.6751    7.0544    0.8103 O   0  0  0  0  0  0
   -9.7474    5.0059    0.9957 O   0  0  0  0  0  0
  -11.2599    6.0789   -2.2499 C   0  0  0  0  0  0
  -12.2482    5.4592   -1.8870 O   0  0  0  0  0  0
  -11.3417    7.2502   -2.8960 O   0  0  0  0  0  0
   -5.8720    6.6878   -1.3105 O   0  0  0  0  0  0
   -5.2772    7.6398   -0.4994 C   0  0  0  0  0  0
   -4.4388    7.3976    0.3590 O   0  0  0  0  0  0
   -5.7860    9.0573   -0.7930 C   0  0  0  0  0  0
   -6.8454    9.6172    0.2064 C   0  0  0  0  0  0
   -8.2753    9.0506    0.1374 C   0  0  0  0  0  0
   -9.1313    9.7416   -0.8845 C   0  0  0  0  0  0
   -8.9459   10.8667   -1.3275 O   0  0  0  0  0  0
  -10.1516    8.9763   -1.3012 O   0  0  0  0  0  0
   -6.4148    9.5821    1.6780 C   0  0  0  0  0  0
   -7.1159    9.9940    2.5811 O   0  0  0  0  0  0
   -5.2416    8.9620    1.9238 O   0  0  0  0  0  0
    8.1879   -2.0736    0.1864 H   0  0  0  0  0  0
    6.8694   -1.7361    1.0631 H   0  0  0  0  0  0
    5.1765   -2.8230    1.5271 H   0  0  0  0  0  0
    1.9816   -2.4035    0.5195 H   0  0  0  0  0  0
   -1.0572    3.0404    0.0864 H   0  0  0  0  0  0
  -10.2178    4.9047    1.8453 H   0  0  0  0  0  0
  -12.2553    7.6257   -2.9502 H   0  0  0  0  0  0
  -10.6648    9.5150   -1.9399 H   0  0  0  0  0  0
   -4.5720    9.0317    1.2076 H   0  0  0  0  0  0
  1  2  1  0  0  0
  2  3  1  0  0  0
  3  4  1  0  0  0
  4  5  1  0  0  0
  5  6  1  0  0  0
  5  7  1  0  0  0
  7  8  1  0  0  0
  7 39  1  0  0  0
  8  9  1  0  0  0
  8 27  1  0  0  0
  9 10  1  0  0  0
 10 11  1  0  0  0
 10 12  1  0  0  0
 12 13  1  0  0  0
 13 14  1  0  0  0
 13 26  1  0  0  0
 14 15  1  0  0  0
 15 16  1  0  0  0
 16 17  1  0  0  0
 17 18  1  0  0  0
 18 19  1  0  0  0
 18 25  1  0  0  0
 19 20  1  0  0  0
 20 21  1  0  0  0
 20 24  1  0  0  0
 21 22  1  0  0  0
 21 23  1  0  0  0
 23 51  1  0  0  0
 23 52  1  0  0  0
 24 53  1  0  0  0
 25 54  1  0  0  0
 26 55  1  0  0  0
 27 28  1  0  0  0
 28 29  2  0  0  0
 28 30  1  0  0  0
 30 31  1  0  0  0
 31 32  1  0  0  0
 31 36  1  0  0  0
 32 33  1  0  0  0
 33 34  2  0  0  0
 33 35  1  0  0  0
 35 56  1  0  0  0
 36 37  2  0  0  0
 36 38  1  0  0  0
 38 57  1  0  0  0
 39 40  1  0  0  0
 40 41  2  0  0  0
 40 42  1  0  0  0
 42 43  1  0  0  0
 43 44  1  0  0  0
 43 48  1  0  0  0
 44 45  1  0  0  0
 45 46  2  0  0  0
 45 47  1  0  0  0
 47 58  1  0  0  0
 48 49  2  0  0  0
 48 50  1  0  0  0
 50 59  1  0  0  0
M  END
>  <AUTHOR>
    GENERATED BY OPEN BABEL 2.4.1

>  <CHROM.1>
88.73437280,114.25133829,-58.56185835,-52.42914318,-40.39154256,66.99455831
-85.15836201,78.26153152,-71.07647274,92.91495126,74.45583748,75.58372230
150.38452716,144.77346090,58.65472673,-144.97750956,-68.45686705,-172.26437240
139.34553844,161.12666238,-41.35942144,167.14686356,160.41317007,0.03038546
61.12212240,36.86436726,175.24324247,133.40887286,-101.04709178,177.77124547
-174.80350218,-10.69010901,101.42214360,-73.38927970,-85.25358109,179.14718430
-22.48910787,178.36125189,31.97544969,-4.56122531,4.19374176,-1.02182181
2.58898335,-0.24913409,0.39812707

>  <COMPND>
    UNNAMED

>  <MASTER>
        0    0    0    0    0    0    0    0  109    0  109    0

>  <Name>
FB1.pdb

>  <RI>
0

>  <Rbt.Current_Directory>
/home/fc/tossine/FB1_39/p3/2_clust01

>  <Rbt.Executable>
rbdock/0.1.0

>  <Rbt.Library>
librxdock.so/0.1.0

>  <Rbt.Parameter_File>
/cluster/rxdock/data/scripts/dock.prm

>  <Rbt.Receptor>
rx_2.prm

>  <SCORE>
27.3086

>  <SCORE.INTER>
10.0897

>  <SCORE.INTER.CONST>
1

>  <SCORE.INTER.POLAR>
-1.08691

>  <SCORE.INTER.REPUL>
0.400207

>  <SCORE.INTER.ROT>
32

>  <SCORE.INTER.VDW>
-25.6158

>  <SCORE.INTER.norm>
0.201795

>  <SCORE.INTRA>
15.9569

>  <SCORE.INTRA.DIHEDRAL>
17.7816

>  <SCORE.INTRA.DIHEDRAL.0>
47.3121

>  <SCORE.INTRA.POLAR>
1.46833

>  <SCORE.INTRA.POLAR.0>
-1.47808

>  <SCORE.INTRA.REPUL>
0

>  <SCORE.INTRA.REPUL.0>
0

>  <SCORE.INTRA.VDW>
2.07377

>  <SCORE.INTRA.VDW.0>
-2.78316

>  <SCORE.INTRA.norm>
0.319138

>  <SCORE.RESTR>
1.26193

>  <SCORE.RESTR.CAVITY>
1.26193

>  <SCORE.RESTR.norm>
0.0252385

>  <SCORE.SYSTEM>
0

>  <SCORE.SYSTEM.CONST>
0

>  <SCORE.SYSTEM.DIHEDRAL>
0

>  <SCORE.SYSTEM.norm>
0

>  <SCORE.heavy>
50

>  <SCORE.norm>
0.546171

$$$$
