FB1.pdb
  RxDock  10072013213D
librxdock.so/0.1.0
 59 58  0  0  0  0  0  0  0  0999 V2000
    7.0701   -1.9916    0.3292 C   0  0  0  0  0  0
    7.6885   -0.6174    0.5755 C   0  0  0  0  0  0
    7.4468    0.3358   -0.6065 C   0  0  0  0  0  0
    5.9513    0.6690   -0.8353 C   0  0  0  0  0  0
    5.4030    1.8679    0.0148 C   0  0  0  0  0  0
    3.8777    1.9697   -0.2167 C   0  0  0  0  0  0
    5.7357    1.7515    1.5619 C   0  0  0  0  0  0
    6.2088    3.0894    2.3051 C   0  0  0  0  0  0
    5.2402    4.2365    2.8288 C   0  0  0  0  0  0
    3.9646    3.7151    3.7355 C   0  0  0  0  0  0
    3.2229    2.6331    2.9524 C   0  0  0  0  0  0
    4.3138    3.1745    5.1952 C   0  0  0  0  0  0
    5.4957    2.1156    5.5121 C   0  0  0  0  0  0
    6.7328    2.4791    6.4030 C   0  0  0  0  0  0
    6.5172    3.4844    7.6245 C   0  0  0  0  0  0
    7.1390    3.2822    9.0622 C   0  0  0  0  0  0
    6.2030    3.2181   10.2980 C   0  0  0  0  0  0
    6.7055    2.3555   11.5197 C   0  0  0  0  0  0
    8.1770    2.5303   11.9153 C   0  0  0  0  0  0
    9.1010    1.2798   11.8898 C   0  0  0  0  0  0
    9.8972    0.9102   10.6034 C   0  0  0  0  0  0
   10.5094   -0.4830   10.5624 C   0  0  0  0  0  0
    9.0918    1.1680    9.3946 N   0  0  0  0  0  0
   10.1130    1.5500   12.8931 O   0  0  0  0  0  0
    5.8892    2.6752   12.6516 O   0  0  0  0  0  0
    4.8463    1.0309    6.1964 O   0  0  0  0  0  0
    6.9333    2.6614    3.4902 O   0  0  0  0  0  0
    8.1618    2.1145    3.2982 C   0  0  0  0  0  0
    8.4018    1.0667    2.7290 O   0  0  0  0  0  0
    9.1964    3.0733    3.8195 C   0  0  0  0  0  0
   10.5730    2.8683    3.1673 C   0  0  0  0  0  0
   11.5017    4.0738    3.3613 C   0  0  0  0  0  0
   12.5459    4.1386    2.2710 C   0  0  0  0  0  0
   12.3775    3.6883    1.1429 O   0  0  0  0  0  0
   13.6818    4.7402    2.6541 O   0  0  0  0  0  0
   11.1769    1.6268    3.8380 C   0  0  0  0  0  0
   10.6232    1.0222    4.7438 O   0  0  0  0  0  0
   12.3899    1.2862    3.3812 O   0  0  0  0  0  0
    4.6426    1.0672    2.2946 O   0  0  0  0  0  0
    4.7817   -0.2815    2.5767 C   0  0  0  0  0  0
    5.6724   -0.7605    3.2663 O   0  0  0  0  0  0
    3.6829   -1.1308    1.9241 C   0  0  0  0  0  0
    2.4090   -1.3731    2.7918 C   0  0  0  0  0  0
    1.5392   -0.1558    3.1554 C   0  0  0  0  0  0
    1.0586    0.6022    1.9517 C   0  0  0  0  0  0
    1.4214    0.4145    0.7985 O   0  0  0  0  0  0
    0.1425    1.5319    2.2628 O   0  0  0  0  0  0
    1.4677   -2.4577    2.2535 C   0  0  0  0  0  0
    1.5156   -2.8653    1.1097 O   0  0  0  0  0  0
    0.6436   -3.0146    3.1657 O   0  0  0  0  0  0
    9.2872    0.4458    8.7027 H   0  0  0  0  0  0
    9.4154    2.0381    8.9659 H   0  0  0  0  0  0
   10.6199    2.3087   12.5342 H   0  0  0  0  0  0
    5.9780    3.6294   12.8309 H   0  0  0  0  0  0
    5.5082    0.3377    6.3574 H   0  0  0  0  0  0
   13.6266    5.2404    3.4908 H   0  0  0  0  0  0
   12.6867    1.7956    2.5867 H   0  0  0  0  0  0
    0.1173    1.5856    3.2414 H   0  0  0  0  0  0
    0.6904   -2.6247    4.0668 H   0  0  0  0  0  0
  1  2  1  0  0  0
  2  3  1  0  0  0
  3  4  1  0  0  0
  4  5  1  0  0  0
  5  6  1  0  0  0
  5  7  1  0  0  0
  7  8  1  0  0  0
  7 39  1  0  0  0
  8  9  1  0  0  0
  8 27  1  0  0  0
  9 10  1  0  0  0
 10 11  1  0  0  0
 10 12  1  0  0  0
 12 13  1  0  0  0
 13 14  1  0  0  0
 13 26  1  0  0  0
 14 15  1  0  0  0
 15 16  1  0  0  0
 16 17  1  0  0  0
 17 18  1  0  0  0
 18 19  1  0  0  0
 18 25  1  0  0  0
 19 20  1  0  0  0
 20 21  1  0  0  0
 20 24  1  0  0  0
 21 22  1  0  0  0
 21 23  1  0  0  0
 23 51  1  0  0  0
 23 52  1  0  0  0
 24 53  1  0  0  0
 25 54  1  0  0  0
 26 55  1  0  0  0
 27 28  1  0  0  0
 28 29  2  0  0  0
 28 30  1  0  0  0
 30 31  1  0  0  0
 31 32  1  0  0  0
 31 36  1  0  0  0
 32 33  1  0  0  0
 33 34  2  0  0  0
 33 35  1  0  0  0
 35 56  1  0  0  0
 36 37  2  0  0  0
 36 38  1  0  0  0
 38 57  1  0  0  0
 39 40  1  0  0  0
 40 41  2  0  0  0
 40 42  1  0  0  0
 42 43  1  0  0  0
 43 44  1  0  0  0
 43 48  1  0  0  0
 44 45  1  0  0  0
 45 46  2  0  0  0
 45 47  1  0  0  0
 47 58  1  0  0  0
 48 49  2  0  0  0
 48 50  1  0  0  0
 50 59  1  0  0  0
M  END
>  <AUTHOR>
    GENERATED BY OPEN BABEL 2.4.1

>  <CHROM.1>
64.34298920,86.14110556,-174.04364816,137.82070686,80.50895937,98.36263668
49.46973611,72.18210153,-52.84639471,-47.97649141,116.66971725,34.13881584
176.29960493,136.92873223,-122.59610783,150.87532028,44.06998430,-120.97207979
-59.40560072,90.71531712,-166.25969178,-66.53032465,-143.57369426,-65.48466326
-156.32459299,162.68120200,-155.06021542,-2.84264707,27.75953316,-13.84958739
-8.25047472,61.22358630,-91.19132294,64.89195665,56.67876179,-17.18013369
-8.60831446,9.06730655,3.95089663,6.59424738,1.43177332,4.43005086,-2.25504633
0.30018961,1.52482765

>  <COMPND>
    UNNAMED

>  <MASTER>
        0    0    0    0    0    0    0    0  109    0  109    0

>  <Name>
FB1.pdb

>  <RI>
0

>  <Rbt.Current_Directory>
/home/fc/tossine/FB1_39/p3/2_clust01

>  <Rbt.Executable>
rbdock/0.1.0

>  <Rbt.Library>
librxdock.so/0.1.0

>  <Rbt.Parameter_File>
/cluster/rxdock/data/scripts/dock.prm

>  <Rbt.Receptor>
rx_3.prm

>  <SCORE>
53.9496

>  <SCORE.INTER>
3.55596

>  <SCORE.INTER.CONST>
1

>  <SCORE.INTER.POLAR>
-2.62051

>  <SCORE.INTER.REPUL>
2.03161

>  <SCORE.INTER.ROT>
32

>  <SCORE.INTER.VDW>
-35.0923

>  <SCORE.INTER.norm>
0.0711192

>  <SCORE.INTRA>
49.0473

>  <SCORE.INTRA.DIHEDRAL>
55.8572

>  <SCORE.INTRA.DIHEDRAL.0>
47.3121

>  <SCORE.INTRA.POLAR>
1.47808

>  <SCORE.INTRA.POLAR.0>
-1.47808

>  <SCORE.INTRA.REPUL>
0

>  <SCORE.INTRA.REPUL.0>
0

>  <SCORE.INTRA.VDW>
16.0932

>  <SCORE.INTRA.VDW.0>
-2.78316

>  <SCORE.INTRA.norm>
0.980946

>  <SCORE.RESTR>
1.34639

>  <SCORE.RESTR.CAVITY>
1.34639

>  <SCORE.RESTR.norm>
0.0269278

>  <SCORE.SYSTEM>
0

>  <SCORE.SYSTEM.CONST>
0

>  <SCORE.SYSTEM.DIHEDRAL>
0

>  <SCORE.SYSTEM.norm>
0

>  <SCORE.heavy>
50

>  <SCORE.norm>
1.07899

$$$$
