FB1.pdb
  RxDock  10072010573D
librxdock.so/0.1.0
 59 58  0  0  0  0  0  0  0  0999 V2000
  -10.7421    9.7095   -2.7012 C   0  0  0  0  0  0
   -9.4456   10.3965   -3.1235 C   0  0  0  0  0  0
   -8.3841    9.3805   -3.5764 C   0  0  0  0  0  0
   -8.0347    8.3287   -2.4941 C   0  0  0  0  0  0
   -6.6623    8.5560   -1.7693 C   0  0  0  0  0  0
   -6.7276    9.9059   -1.0183 C   0  0  0  0  0  0
   -6.2633    7.3774   -0.7846 C   0  0  0  0  0  0
   -7.3723    6.9073    0.2715 C   0  0  0  0  0  0
   -8.9165    7.2805    0.2039 C   0  0  0  0  0  0
   -9.2547    8.8883    0.3514 C   0  0  0  0  0  0
  -10.7714    9.0695    0.3241 C   0  0  0  0  0  0
   -8.6518    9.6187    1.6351 C   0  0  0  0  0  0
   -8.7557   11.2107    1.9060 C   0  0  0  0  0  0
   -8.2423   12.2736    0.8751 C   0  0  0  0  0  0
   -8.7398   12.1631   -0.6380 C   0  0  0  0  0  0
   -9.8295   13.1048   -1.2863 C   0  0  0  0  0  0
  -11.0596   13.5413   -0.4473 C   0  0  0  0  0  0
  -11.0426   15.0150    0.1159 C   0  0  0  0  0  0
   -9.8024   15.4198    0.9223 C   0  0  0  0  0  0
   -9.7246   16.8707    1.4766 C   0  0  0  0  0  0
   -8.3505   17.5883    1.6256 C   0  0  0  0  0  0
   -7.6634   17.4622    2.9781 C   0  0  0  0  0  0
   -7.4368   17.2061    0.5322 N   0  0  0  0  0  0
  -10.4639   17.6704    0.5186 O   0  0  0  0  0  0
  -11.1782   15.9125   -0.9913 O   0  0  0  0  0  0
  -10.1628   11.4710    2.0440 O   0  0  0  0  0  0
   -7.3526    5.4541    0.2617 O   0  0  0  0  0  0
   -7.8499    4.8378   -0.8420 C   0  0  0  0  0  0
   -8.2218    5.3825   -1.8640 O   0  0  0  0  0  0
   -7.7716    3.3507   -0.6328 C   0  0  0  0  0  0
   -8.0283    2.9457    0.8276 C   0  0  0  0  0  0
   -9.1590    3.7567    1.4733 C   0  0  0  0  0  0
  -10.3586    3.8437    0.5586 C   0  0  0  0  0  0
  -10.3926    3.3513   -0.5640 O   0  0  0  0  0  0
  -11.3908    4.5128    1.0931 O   0  0  0  0  0  0
   -8.4028    1.4575    0.7930 C   0  0  0  0  0  0
   -7.8916    0.6239    1.5253 O   0  0  0  0  0  0
   -9.3052    1.1360   -0.1442 O   0  0  0  0  0  0
   -5.6845    6.2316   -1.5277 O   0  0  0  0  0  0
   -4.3202    6.0106   -1.4397 C   0  0  0  0  0  0
   -3.6543    6.1620   -0.4238 O   0  0  0  0  0  0
   -3.7168    5.5468   -2.7720 C   0  0  0  0  0  0
   -3.7837    4.0126   -3.0483 C   0  0  0  0  0  0
   -3.3473    3.0555   -1.9240 C   0  0  0  0  0  0
   -4.3683    2.9316   -0.8300 C   0  0  0  0  0  0
   -4.7761    3.8464   -0.1276 O   0  0  0  0  0  0
   -4.8279    1.6781   -0.6966 O   0  0  0  0  0  0
   -5.1399    3.5162   -3.5647 C   0  0  0  0  0  0
   -6.1937    4.0399   -3.2615 O   0  0  0  0  0  0
   -5.0846    2.5175   -4.4707 O   0  0  0  0  0  0
   -7.9334   17.2686   -0.3554 H   0  0  0  0  0  0
   -7.2021   16.2161    0.6337 H   0  0  0  0  0  0
   -9.8286   17.8315   -0.2106 H   0  0  0  0  0  0
  -11.7045   16.6792   -0.6987 H   0  0  0  0  0  0
  -10.5110   10.8830    2.7350 H   0  0  0  0  0  0
  -12.2018    4.5309    0.5496 H   0  0  0  0  0  0
   -9.6140    1.8979   -0.6946 H   0  0  0  0  0  0
   -5.6889    1.7421   -0.2318 H   0  0  0  0  0  0
   -5.1158    2.8018   -5.4111 H   0  0  0  0  0  0
  1  2  1  0  0  0
  2  3  1  0  0  0
  3  4  1  0  0  0
  4  5  1  0  0  0
  5  6  1  0  0  0
  5  7  1  0  0  0
  7  8  1  0  0  0
  7 39  1  0  0  0
  8  9  1  0  0  0
  8 27  1  0  0  0
  9 10  1  0  0  0
 10 11  1  0  0  0
 10 12  1  0  0  0
 12 13  1  0  0  0
 13 14  1  0  0  0
 13 26  1  0  0  0
 14 15  1  0  0  0
 15 16  1  0  0  0
 16 17  1  0  0  0
 17 18  1  0  0  0
 18 19  1  0  0  0
 18 25  1  0  0  0
 19 20  1  0  0  0
 20 21  1  0  0  0
 20 24  1  0  0  0
 21 22  1  0  0  0
 21 23  1  0  0  0
 23 51  1  0  0  0
 23 52  1  0  0  0
 24 53  1  0  0  0
 25 54  1  0  0  0
 26 55  1  0  0  0
 27 28  1  0  0  0
 28 29  2  0  0  0
 28 30  1  0  0  0
 30 31  1  0  0  0
 31 32  1  0  0  0
 31 36  1  0  0  0
 32 33  1  0  0  0
 33 34  2  0  0  0
 33 35  1  0  0  0
 35 56  1  0  0  0
 36 37  2  0  0  0
 36 38  1  0  0  0
 38 57  1  0  0  0
 39 40  1  0  0  0
 40 41  2  0  0  0
 40 42  1  0  0  0
 42 43  1  0  0  0
 43 44  1  0  0  0
 43 48  1  0  0  0
 44 45  1  0  0  0
 45 46  2  0  0  0
 45 47  1  0  0  0
 47 58  1  0  0  0
 48 49  2  0  0  0
 48 50  1  0  0  0
 50 59  1  0  0  0
M  END
>  <AUTHOR>
    GENERATED BY OPEN BABEL 2.4.1

>  <CHROM.1>
-57.72828301,-104.20370251,62.65954293,-50.09199878,14.61161412,106.56543127
-63.61475784,-71.17899006,-177.69661941,174.56371370,-55.52132105,51.65749487
54.56997642,104.43896958,-38.60863938,103.57371195,-53.17673248,178.86642004
144.92489508,-148.20030119,-92.66306936,-81.20731209,47.02035809,5.70298425
35.52728478,40.32275162,46.19747000,131.08314934,-1.66130335,-175.88564931
0.06483910,38.03157623,-85.74864535,-47.36499930,75.58897246,-30.68382186
-60.51844685,-159.17372293,-95.15503324,-7.92621323,8.05545678,-0.49482700
1.84350121,0.47087081,0.00162436

>  <COMPND>
    UNNAMED

>  <MASTER>
        0    0    0    0    0    0    0    0  109    0  109    0

>  <Name>
FB1.pdb

>  <RI>
0

>  <Rbt.Current_Directory>
/home/fc/tossine/FB1_39/p3/2_clust01

>  <Rbt.Executable>
rbdock/0.1.0

>  <Rbt.Library>
librxdock.so/0.1.0

>  <Rbt.Parameter_File>
/cluster/rxdock/data/scripts/dock.prm

>  <Rbt.Receptor>
rx_0.prm

>  <SCORE>
42.6326

>  <SCORE.INTER>
10.4684

>  <SCORE.INTER.CONST>
1

>  <SCORE.INTER.POLAR>
-1.2001

>  <SCORE.INTER.REPUL>
0.232496

>  <SCORE.INTER.ROT>
32

>  <SCORE.INTER.VDW>
-24.0137

>  <SCORE.INTER.norm>
0.209369

>  <SCORE.INTRA>
31.4984

>  <SCORE.INTRA.DIHEDRAL>
44.5562

>  <SCORE.INTRA.DIHEDRAL.0>
47.3121

>  <SCORE.INTRA.POLAR>
0.878265

>  <SCORE.INTRA.POLAR.0>
-1.47808

>  <SCORE.INTRA.REPUL>
0

>  <SCORE.INTRA.REPUL.0>
0

>  <SCORE.INTRA.VDW>
6.23421

>  <SCORE.INTRA.VDW.0>
-2.78316

>  <SCORE.INTRA.norm>
0.629968

>  <SCORE.RESTR>
0.665713

>  <SCORE.RESTR.CAVITY>
0.665713

>  <SCORE.RESTR.norm>
0.0133143

>  <SCORE.SYSTEM>
0

>  <SCORE.SYSTEM.CONST>
0

>  <SCORE.SYSTEM.DIHEDRAL>
0

>  <SCORE.SYSTEM.norm>
0

>  <SCORE.heavy>
50

>  <SCORE.norm>
0.852651

$$$$
