FB1.pdb
  RxDock  10072013293D
librxdock.so/0.1.0
 59 58  0  0  0  0  0  0  0  0999 V2000
   -4.3564    6.5419   -0.5147 C   0  0  0  0  0  0
   -5.4048    6.3143   -1.6012 C   0  0  0  0  0  0
   -6.6118    7.2520   -1.4331 C   0  0  0  0  0  0
   -7.8064    6.8915   -2.3510 C   0  0  0  0  0  0
   -9.0849    7.7783   -2.1520 C   0  0  0  0  0  0
  -10.1856    7.2650   -3.1089 C   0  0  0  0  0  0
   -9.6058    7.8111   -0.6535 C   0  0  0  0  0  0
   -9.5877    6.4262    0.1515 C   0  0  0  0  0  0
  -10.4960    6.0888    1.4123 C   0  0  0  0  0  0
  -11.7954    7.0827    1.6244 C   0  0  0  0  0  0
  -12.8122    6.7938    0.5213 C   0  0  0  0  0  0
  -12.5134    7.0074    3.0469 C   0  0  0  0  0  0
  -13.1140    5.6492    3.6896 C   0  0  0  0  0  0
  -12.8181    4.2327    3.0880 C   0  0  0  0  0  0
  -13.7400    3.0101    3.5402 C   0  0  0  0  0  0
  -13.5780    2.2325    4.9054 C   0  0  0  0  0  0
  -12.6691    2.8203    6.0170 C   0  0  0  0  0  0
  -12.5045    1.9540    7.3253 C   0  0  0  0  0  0
  -12.1777    0.4695    7.1206 C   0  0  0  0  0  0
  -13.2596   -0.4412    6.4737 C   0  0  0  0  0  0
  -12.9265   -1.9121    6.0850 C   0  0  0  0  0  0
  -12.1322   -2.1104    4.8016 C   0  0  0  0  0  0
  -12.2935   -2.6230    7.2121 N   0  0  0  0  0  0
  -14.3011   -0.5449    7.4778 O   0  0  0  0  0  0
  -11.4674    2.5429    8.1174 O   0  0  0  0  0  0
  -12.5852    5.6073    5.0257 O   0  0  0  0  0  0
   -9.9140    5.3904   -0.8144 O   0  0  0  0  0  0
   -8.9798    4.4271   -1.0252 C   0  0  0  0  0  0
   -7.9320    4.2966   -0.4213 O   0  0  0  0  0  0
   -9.5017    3.4778   -2.0682 C   0  0  0  0  0  0
   -8.3759    2.7909   -2.8576 C   0  0  0  0  0  0
   -8.8039    1.4355   -3.4347 C   0  0  0  0  0  0
   -9.9921    1.5861   -4.3561 C   0  0  0  0  0  0
   -9.9258    1.4616   -5.5742 O   0  0  0  0  0  0
  -11.1345    1.8689   -3.7129 O   0  0  0  0  0  0
   -8.0098    3.7542   -3.9951 C   0  0  0  0  0  0
   -8.7529    4.6438   -4.3809 O   0  0  0  0  0  0
   -6.8232    3.5086   -4.5674 O   0  0  0  0  0  0
   -8.9629    8.9061    0.1130 O   0  0  0  0  0  0
   -9.0186   10.1911   -0.4008 C   0  0  0  0  0  0
   -9.5954   10.5034   -1.4343 O   0  0  0  0  0  0
   -8.2691   11.2032    0.4757 C   0  0  0  0  0  0
   -9.1087   11.8703    1.6091 C   0  0  0  0  0  0
  -10.0970   12.9840    1.2173 C   0  0  0  0  0  0
   -9.7751   13.6148   -0.1067 C   0  0  0  0  0  0
  -10.2661   13.3044   -1.1833 O   0  0  0  0  0  0
   -8.8759   14.6048    0.0017 O   0  0  0  0  0  0
   -9.8694   10.8840    2.5039 C   0  0  0  0  0  0
  -10.3725    9.8618    2.0812 O   0  0  0  0  0  0
   -9.8553   11.1690    3.8230 O   0  0  0  0  0  0
  -12.2933   -3.6234    7.0182 H   0  0  0  0  0  0
  -12.8844   -2.5151    8.0395 H   0  0  0  0  0  0
  -14.7043    0.3483    7.5082 H   0  0  0  0  0  0
  -11.7344    3.4540    8.3395 H   0  0  0  0  0  0
  -12.8701    6.4137    5.4873 H   0  0  0  0  0  0
  -11.9249    1.9446   -4.2814 H   0  0  0  0  0  0
   -6.3094    2.7749   -4.1474 H   0  0  0  0  0  0
   -8.7882   15.0040   -0.8895 H   0  0  0  0  0  0
  -10.3092   10.5142    4.3987 H   0  0  0  0  0  0
  1  2  1  0  0  0
  2  3  1  0  0  0
  3  4  1  0  0  0
  4  5  1  0  0  0
  5  6  1  0  0  0
  5  7  1  0  0  0
  7  8  1  0  0  0
  7 39  1  0  0  0
  8  9  1  0  0  0
  8 27  1  0  0  0
  9 10  1  0  0  0
 10 11  1  0  0  0
 10 12  1  0  0  0
 12 13  1  0  0  0
 13 14  1  0  0  0
 13 26  1  0  0  0
 14 15  1  0  0  0
 15 16  1  0  0  0
 16 17  1  0  0  0
 17 18  1  0  0  0
 18 19  1  0  0  0
 18 25  1  0  0  0
 19 20  1  0  0  0
 20 21  1  0  0  0
 20 24  1  0  0  0
 21 22  1  0  0  0
 21 23  1  0  0  0
 23 51  1  0  0  0
 23 52  1  0  0  0
 24 53  1  0  0  0
 25 54  1  0  0  0
 26 55  1  0  0  0
 27 28  1  0  0  0
 28 29  2  0  0  0
 28 30  1  0  0  0
 30 31  1  0  0  0
 31 32  1  0  0  0
 31 36  1  0  0  0
 32 33  1  0  0  0
 33 34  2  0  0  0
 33 35  1  0  0  0
 35 56  1  0  0  0
 36 37  2  0  0  0
 36 38  1  0  0  0
 38 57  1  0  0  0
 39 40  1  0  0  0
 40 41  2  0  0  0
 40 42  1  0  0  0
 42 43  1  0  0  0
 43 44  1  0  0  0
 43 48  1  0  0  0
 44 45  1  0  0  0
 45 46  2  0  0  0
 45 47  1  0  0  0
 47 58  1  0  0  0
 48 49  2  0  0  0
 48 50  1  0  0  0
 50 59  1  0  0  0
M  END
>  <AUTHOR>
    GENERATED BY OPEN BABEL 2.4.1

>  <CHROM.1>
-169.71680023,176.82943399,-178.46600453,-41.21501848,-157.01791364,53.33753058
16.78254769,119.09067805,70.48932197,-56.56340756,11.30578515,-164.24844381
58.62213842,-79.36415490,12.36123138,-177.25969313,48.09494477,-67.19260790
60.20884150,172.63644089,-77.86478268,69.74520440,166.37885939,5.13854530
152.77461357,154.27428069,58.83155974,-19.60415780,108.67796065,-178.19107681
-3.67116769,2.07046074,-88.87553213,-76.49661888,-20.77456681,-36.28661848
95.38529298,-175.18855137,-177.38707779,-10.25084440,5.62413126,0.96882087
-0.65632393,-1.14890129,-2.90522551

>  <COMPND>
    UNNAMED

>  <MASTER>
        0    0    0    0    0    0    0    0  109    0  109    0

>  <Name>
FB1.pdb

>  <RI>
0

>  <Rbt.Current_Directory>
/home/fc/tossine/FB1_39/p3/2_clust01

>  <Rbt.Executable>
rbdock/0.1.0

>  <Rbt.Library>
librxdock.so/0.1.0

>  <Rbt.Parameter_File>
/cluster/rxdock/data/scripts/dock.prm

>  <Rbt.Receptor>
rx_3.prm

>  <SCORE>
11.3804

>  <SCORE.INTER>
9.03596

>  <SCORE.INTER.CONST>
1

>  <SCORE.INTER.POLAR>
-1.33756

>  <SCORE.INTER.REPUL>
0.527748

>  <SCORE.INTER.ROT>
32

>  <SCORE.INTER.VDW>
-26.4551

>  <SCORE.INTER.norm>
0.180719

>  <SCORE.INTRA>
1.45638

>  <SCORE.INTRA.DIHEDRAL>
3.23149

>  <SCORE.INTRA.DIHEDRAL.0>
47.3121

>  <SCORE.INTRA.POLAR>
1.47659

>  <SCORE.INTRA.POLAR.0>
-1.47808

>  <SCORE.INTRA.REPUL>
0

>  <SCORE.INTRA.REPUL.0>
0

>  <SCORE.INTRA.VDW>
-5.17977

>  <SCORE.INTRA.VDW.0>
-2.78316

>  <SCORE.INTRA.norm>
0.0291276

>  <SCORE.RESTR>
0.888054

>  <SCORE.RESTR.CAVITY>
0.888054

>  <SCORE.RESTR.norm>
0.0177611

>  <SCORE.SYSTEM>
0

>  <SCORE.SYSTEM.CONST>
0

>  <SCORE.SYSTEM.DIHEDRAL>
0

>  <SCORE.SYSTEM.norm>
0

>  <SCORE.heavy>
50

>  <SCORE.norm>
0.227608

$$$$
