FB1.pdb
  RxDock  10072014133D
librxdock.so/0.1.0
 59 58  0  0  0  0  0  0  0  0999 V2000
   11.2809    7.4189    3.7108 C   0  0  0  0  0  0
   11.3337    6.4564    2.5268 C   0  0  0  0  0  0
   11.2681    4.9893    2.9823 C   0  0  0  0  0  0
   11.3002    3.9767    1.8103 C   0  0  0  0  0  0
   11.1711    2.4716    2.2327 C   0  0  0  0  0  0
   12.3786    2.1137    3.1295 C   0  0  0  0  0  0
    9.8028    2.1337    2.9618 C   0  0  0  0  0  0
    8.5920    1.6364    2.0384 C   0  0  0  0  0  0
    8.5349    0.2417    1.2770 C   0  0  0  0  0  0
    7.6690    0.2463   -0.1271 C   0  0  0  0  0  0
    8.4125    1.1003   -1.1528 C   0  0  0  0  0  0
    7.3428   -1.1827   -0.7567 C   0  0  0  0  0  0
    5.8745   -1.8629   -0.7516 C   0  0  0  0  0  0
    4.9036   -1.7567    0.4740 C   0  0  0  0  0  0
    5.3893   -2.3415    1.8779 C   0  0  0  0  0  0
    4.5036   -2.3645    3.1854 C   0  0  0  0  0  0
    3.1164   -3.0591    3.1571 C   0  0  0  0  0  0
    2.2068   -2.7675    1.9014 C   0  0  0  0  0  0
    0.8695   -3.5163    1.8427 C   0  0  0  0  0  0
   -0.3410   -2.9255    2.6198 C   0  0  0  0  0  0
   -1.6878   -3.7038    2.6972 C   0  0  0  0  0  0
   -2.7865   -3.2529    1.7449 C   0  0  0  0  0  0
   -1.4614   -5.1577    2.5905 N   0  0  0  0  0  0
    0.1158   -2.8281    3.9930 O   0  0  0  0  0  0
    1.9425   -1.3609    1.8646 O   0  0  0  0  0  0
    5.1740   -1.2382   -1.8405 O   0  0  0  0  0  0
    7.4104    1.6328    2.8848 O   0  0  0  0  0  0
    6.2070    1.5264    2.2637 C   0  0  0  0  0  0
    5.9081    2.0070    1.1870 O   0  0  0  0  0  0
    5.3263    0.6244    3.0835 C   0  0  0  0  0  0
    4.3169    1.4047    3.9406 C   0  0  0  0  0  0
    4.9980    2.2951    4.9878 C   0  0  0  0  0  0
    4.0179    2.7339    6.0508 C   0  0  0  0  0  0
    2.9528    2.1660    6.2674 O   0  0  0  0  0  0
    4.4248    3.8090    6.7418 O   0  0  0  0  0  0
    3.5106    2.2686    2.9610 C   0  0  0  0  0  0
    3.6026    3.4859    2.9137 O   0  0  0  0  0  0
    2.6563    1.5807    2.1909 O   0  0  0  0  0  0
   10.0216    1.2344    4.1209 O   0  0  0  0  0  0
   10.0563    1.7902    5.3889 C   0  0  0  0  0  0
   10.7951    1.4194    6.2917 O   0  0  0  0  0  0
    9.0546    2.9414    5.5494 C   0  0  0  0  0  0
    9.2388    3.8273    6.8205 C   0  0  0  0  0  0
    9.7461    3.1503    8.1068 C   0  0  0  0  0  0
    8.7475    2.2006    8.7028 C   0  0  0  0  0  0
    7.9485    2.4691    9.5895 O   0  0  0  0  0  0
    8.7976    0.9835    8.1404 O   0  0  0  0  0  0
   10.0910    5.0840    6.6037 C   0  0  0  0  0  0
    9.8146    5.9355    5.7821 O   0  0  0  0  0  0
   11.1195    5.2418    7.4631 O   0  0  0  0  0  0
   -1.0877   -5.3707    1.6667 H   0  0  0  0  0  0
   -2.3663   -5.6325    2.6246 H   0  0  0  0  0  0
   -0.6733   -2.5341    4.4952 H   0  0  0  0  0  0
    1.4235   -1.1699    1.0617 H   0  0  0  0  0  0
    4.2803   -1.6178   -1.8804 H   0  0  0  0  0  0
    5.2255    4.2479    6.3959 H   0  0  0  0  0  0
    2.6098    0.6134    2.3931 H   0  0  0  0  0  0
    8.9974    1.1206    7.1903 H   0  0  0  0  0  0
   11.7649    5.9426    7.2210 H   0  0  0  0  0  0
  1  2  1  0  0  0
  2  3  1  0  0  0
  3  4  1  0  0  0
  4  5  1  0  0  0
  5  6  1  0  0  0
  5  7  1  0  0  0
  7  8  1  0  0  0
  7 39  1  0  0  0
  8  9  1  0  0  0
  8 27  1  0  0  0
  9 10  1  0  0  0
 10 11  1  0  0  0
 10 12  1  0  0  0
 12 13  1  0  0  0
 13 14  1  0  0  0
 13 26  1  0  0  0
 14 15  1  0  0  0
 15 16  1  0  0  0
 16 17  1  0  0  0
 17 18  1  0  0  0
 18 19  1  0  0  0
 18 25  1  0  0  0
 19 20  1  0  0  0
 20 21  1  0  0  0
 20 24  1  0  0  0
 21 22  1  0  0  0
 21 23  1  0  0  0
 23 51  1  0  0  0
 23 52  1  0  0  0
 24 53  1  0  0  0
 25 54  1  0  0  0
 26 55  1  0  0  0
 27 28  1  0  0  0
 28 29  2  0  0  0
 28 30  1  0  0  0
 30 31  1  0  0  0
 31 32  1  0  0  0
 31 36  1  0  0  0
 32 33  1  0  0  0
 33 34  2  0  0  0
 33 35  1  0  0  0
 35 56  1  0  0  0
 36 37  2  0  0  0
 36 38  1  0  0  0
 38 57  1  0  0  0
 39 40  1  0  0  0
 40 41  2  0  0  0
 40 42  1  0  0  0
 42 43  1  0  0  0
 43 44  1  0  0  0
 43 48  1  0  0  0
 44 45  1  0  0  0
 45 46  2  0  0  0
 45 47  1  0  0  0
 47 58  1  0  0  0
 48 49  2  0  0  0
 48 50  1  0  0  0
 50 59  1  0  0  0
M  END
>  <AUTHOR>
    GENERATED BY OPEN BABEL 2.4.1

>  <CHROM.1>
179.24923058,-177.42011745,-62.03267944,91.69095036,68.85368992,99.96339434
-150.17029615,166.15050608,68.05947860,107.64354122,-38.97265545,-59.81943380
179.87231128,-177.26840341,56.09226799,-44.13426632,176.79672716,83.54386721
176.79928957,-174.73274534,-100.12789829,-174.95843266,-64.89992111,-35.44235175
100.89146986,-63.27440909,-163.85105216,-110.70481908,19.27362218,8.43489476
3.90251981,-143.08132338,-166.93174366,-33.69898448,-68.49916647,57.90694741
-95.06147153,-35.74156484,168.54979305,6.31088576,1.10679157,3.49689146,-0.47118762
-0.47941899,-1.96320114

>  <COMPND>
    UNNAMED

>  <MASTER>
        0    0    0    0    0    0    0    0  109    0  109    0

>  <Name>
FB1.pdb

>  <RI>
0

>  <Rbt.Current_Directory>
/home/fc/tossine/FB1_39/p3/2_clust01

>  <Rbt.Executable>
rbdock/0.1.0

>  <Rbt.Library>
librxdock.so/0.1.0

>  <Rbt.Parameter_File>
/cluster/rxdock/data/scripts/dock.prm

>  <Rbt.Receptor>
rx_4.prm

>  <SCORE>
11.4232

>  <SCORE.INTER>
-9.12789

>  <SCORE.INTER.CONST>
1

>  <SCORE.INTER.POLAR>
-3.75209

>  <SCORE.INTER.REPUL>
0.662508

>  <SCORE.INTER.ROT>
32

>  <SCORE.INTER.VDW>
-37.0833

>  <SCORE.INTER.norm>
-0.182558

>  <SCORE.INTRA>
18.5599

>  <SCORE.INTRA.DIHEDRAL>
23.4812

>  <SCORE.INTRA.DIHEDRAL.0>
47.3121

>  <SCORE.INTRA.POLAR>
0.486714

>  <SCORE.INTRA.POLAR.0>
-1.47808

>  <SCORE.INTRA.REPUL>
0

>  <SCORE.INTRA.REPUL.0>
0

>  <SCORE.INTRA.VDW>
5.16446

>  <SCORE.INTRA.VDW.0>
-2.78316

>  <SCORE.INTRA.norm>
0.371198

>  <SCORE.RESTR>
1.99122

>  <SCORE.RESTR.CAVITY>
1.99122

>  <SCORE.RESTR.norm>
0.0398244

>  <SCORE.SYSTEM>
0

>  <SCORE.SYSTEM.CONST>
0

>  <SCORE.SYSTEM.DIHEDRAL>
0

>  <SCORE.SYSTEM.norm>
0

>  <SCORE.heavy>
50

>  <SCORE.norm>
0.228465

$$$$
