FB1.pdb
  RxDock  10072011003D
librxdock.so/0.1.0
 59 58  0  0  0  0  0  0  0  0999 V2000
  -10.8608    7.9899   -4.4763 C   0  0  0  0  0  0
  -11.9546    8.3702   -3.4812 C   0  0  0  0  0  0
  -11.6346    7.8677   -2.0637 C   0  0  0  0  0  0
  -11.6518    6.3238   -1.9373 C   0  0  0  0  0  0
  -11.0233    5.7613   -0.6148 C   0  0  0  0  0  0
  -11.5369    4.3175   -0.4090 C   0  0  0  0  0  0
   -9.4373    5.8073   -0.5978 C   0  0  0  0  0  0
   -8.7559    7.1250    0.0069 C   0  0  0  0  0  0
   -7.2343    7.2461    0.4523 C   0  0  0  0  0  0
   -6.1318    6.8577   -0.7117 C   0  0  0  0  0  0
   -5.3034    8.1015   -1.0296 C   0  0  0  0  0  0
   -5.1590    5.6378   -0.3796 C   0  0  0  0  0  0
   -3.6827    5.4547   -1.0166 C   0  0  0  0  0  0
   -2.8122    4.1759   -0.7657 C   0  0  0  0  0  0
   -2.4888    3.7638    0.7426 C   0  0  0  0  0  0
   -1.7638    2.4248    1.1620 C   0  0  0  0  0  0
   -0.2526    2.2462    0.8587 C   0  0  0  0  0  0
    0.5861    1.4241    1.9122 C   0  0  0  0  0  0
    1.4954    2.2383    2.8410 C   0  0  0  0  0  0
    2.5780    1.4818    3.6620 C   0  0  0  0  0  0
    3.7993    0.8293    2.9492 C   0  0  0  0  0  0
    4.6655    1.7547    2.1061 C   0  0  0  0  0  0
    4.6209    0.0659    3.9076 N   0  0  0  0  0  0
    3.1476    2.4896    4.5359 O   0  0  0  0  0  0
   -0.3296    0.6727    2.7163 O   0  0  0  0  0  0
   -3.8862    5.4969   -2.4390 O   0  0  0  0  0  0
   -8.9213    8.1645   -0.9953 O   0  0  0  0  0  0
   -8.8579    9.4515   -0.5655 C   0  0  0  0  0  0
   -8.4180    9.8324    0.5026 O   0  0  0  0  0  0
   -9.3314   10.3482   -1.6760 C   0  0  0  0  0  0
   -8.4715   11.6141   -1.8198 C   0  0  0  0  0  0
   -8.5865   12.2487   -3.2118 C   0  0  0  0  0  0
   -7.2234   12.4615   -3.8281 C   0  0  0  0  0  0
   -6.8257   13.5472   -4.2366 O   0  0  0  0  0  0
   -6.4827   11.3449   -3.8856 O   0  0  0  0  0  0
   -8.9801   12.5930   -0.7526 C   0  0  0  0  0  0
   -9.8556   13.4176   -0.9669 O   0  0  0  0  0  0
   -8.3487   12.5032    0.4260 O   0  0  0  0  0  0
   -8.8721    4.5699   -0.0069 O   0  0  0  0  0  0
   -8.3553    3.6087   -0.8596 C   0  0  0  0  0  0
   -8.1129    2.4522   -0.5401 O   0  0  0  0  0  0
   -8.1137    4.1522   -2.2740 C   0  0  0  0  0  0
   -7.7675    3.0861   -3.3594 C   0  0  0  0  0  0
   -6.5179    2.2130   -3.1431 C   0  0  0  0  0  0
   -5.3229    2.6986   -3.9116 C   0  0  0  0  0  0
   -4.4057    2.0002   -4.3209 O   0  0  0  0  0  0
   -5.3599    4.0210   -4.1362 O   0  0  0  0  0  0
   -8.9225    2.1428   -3.7179 C   0  0  0  0  0  0
   -8.8254    0.9324   -3.6705 O   0  0  0  0  0  0
  -10.0992    2.7449   -3.9900 O   0  0  0  0  0  0
    5.0930    0.7158    4.5348 H   0  0  0  0  0  0
    5.3736   -0.3990    3.3949 H   0  0  0  0  0  0
    3.3632    3.2386    3.9410 H   0  0  0  0  0  0
   -0.8125    1.2957    3.2901 H   0  0  0  0  0  0
   -3.7113    6.4040   -2.7410 H   0  0  0  0  0  0
   -5.5985   11.4516   -4.2859 H   0  0  0  0  0  0
   -8.6754   13.1332    1.1153 H   0  0  0  0  0  0
   -4.6224    4.4141   -3.6234 H   0  0  0  0  0  0
  -10.0610    3.4519   -4.6719 H   0  0  0  0  0  0
  1  2  1  0  0  0
  2  3  1  0  0  0
  3  4  1  0  0  0
  4  5  1  0  0  0
  5  6  1  0  0  0
  5  7  1  0  0  0
  7  8  1  0  0  0
  7 39  1  0  0  0
  8  9  1  0  0  0
  8 27  1  0  0  0
  9 10  1  0  0  0
 10 11  1  0  0  0
 10 12  1  0  0  0
 12 13  1  0  0  0
 13 14  1  0  0  0
 13 26  1  0  0  0
 14 15  1  0  0  0
 15 16  1  0  0  0
 16 17  1  0  0  0
 17 18  1  0  0  0
 18 19  1  0  0  0
 18 25  1  0  0  0
 19 20  1  0  0  0
 20 21  1  0  0  0
 20 24  1  0  0  0
 21 22  1  0  0  0
 21 23  1  0  0  0
 23 51  1  0  0  0
 23 52  1  0  0  0
 24 53  1  0  0  0
 25 54  1  0  0  0
 26 55  1  0  0  0
 27 28  1  0  0  0
 28 29  2  0  0  0
 28 30  1  0  0  0
 30 31  1  0  0  0
 31 32  1  0  0  0
 31 36  1  0  0  0
 32 33  1  0  0  0
 33 34  2  0  0  0
 33 35  1  0  0  0
 35 56  1  0  0  0
 36 37  2  0  0  0
 36 38  1  0  0  0
 38 57  1  0  0  0
 39 40  1  0  0  0
 40 41  2  0  0  0
 40 42  1  0  0  0
 42 43  1  0  0  0
 43 44  1  0  0  0
 43 48  1  0  0  0
 44 45  1  0  0  0
 45 46  2  0  0  0
 45 47  1  0  0  0
 47 58  1  0  0  0
 48 49  2  0  0  0
 48 50  1  0  0  0
 50 59  1  0  0  0
M  END
>  <AUTHOR>
    GENERATED BY OPEN BABEL 2.4.1

>  <CHROM.1>
-66.86737279,166.84709352,160.75284714,90.90799433,164.03882183,102.27965336
55.48016309,157.74408610,116.85615481,-153.81920481,-174.26601444,-56.31531388
96.33090438,173.03013417,70.93224460,145.67270576,-104.42809961,-166.04683835
-70.64005106,68.68961695,57.17166473,-49.93488819,-69.96918024,15.77693902
-138.43068733,158.43225948,-127.17362380,-91.52195002,-124.91372099,179.55796955
-179.97473410,-164.48895749,-169.88253477,-59.25863144,-99.07130823,-125.67532642
-151.54422376,113.35401499,52.89159696,-5.87200548,5.75823570,-0.93749168
2.59438929,-0.43179661,0.09550965

>  <COMPND>
    UNNAMED

>  <MASTER>
        0    0    0    0    0    0    0    0  109    0  109    0

>  <Name>
FB1.pdb

>  <RI>
0

>  <Rbt.Current_Directory>
/home/fc/tossine/FB1_39/p3/2_clust01

>  <Rbt.Executable>
rbdock/0.1.0

>  <Rbt.Library>
librxdock.so/0.1.0

>  <Rbt.Parameter_File>
/cluster/rxdock/data/scripts/dock.prm

>  <Rbt.Receptor>
rx_0.prm

>  <SCORE>
26.5951

>  <SCORE.INTER>
-0.947277

>  <SCORE.INTER.CONST>
1

>  <SCORE.INTER.POLAR>
-3.90046

>  <SCORE.INTER.REPUL>
0.530444

>  <SCORE.INTER.ROT>
32

>  <SCORE.INTER.VDW>
-27.7379

>  <SCORE.INTER.norm>
-0.0189455

>  <SCORE.INTRA>
27.52

>  <SCORE.INTRA.DIHEDRAL>
48.6009

>  <SCORE.INTRA.DIHEDRAL.0>
47.3121

>  <SCORE.INTRA.POLAR>
0.478077

>  <SCORE.INTRA.POLAR.0>
-1.47808

>  <SCORE.INTRA.REPUL>
0

>  <SCORE.INTRA.REPUL.0>
0

>  <SCORE.INTRA.VDW>
1.59408

>  <SCORE.INTRA.VDW.0>
-2.78316

>  <SCORE.INTRA.norm>
0.5504

>  <SCORE.RESTR>
0.0223932

>  <SCORE.RESTR.CAVITY>
0.0223932

>  <SCORE.RESTR.norm>
0.000447864

>  <SCORE.SYSTEM>
0

>  <SCORE.SYSTEM.CONST>
0

>  <SCORE.SYSTEM.DIHEDRAL>
0

>  <SCORE.SYSTEM.norm>
0

>  <SCORE.heavy>
50

>  <SCORE.norm>
0.531902

$$$$
