FB1.pdb
  RxDock  10072014113D
librxdock.so/0.1.0
 59 58  0  0  0  0  0  0  0  0999 V2000
    8.3197    3.5595   -2.1095 C   0  0  0  0  0  0
    7.0526    2.9028   -1.5666 C   0  0  0  0  0  0
    7.3720    1.6473   -0.7385 C   0  0  0  0  0  0
    8.2620    1.9322    0.4970 C   0  0  0  0  0  0
    8.1933    0.8460    1.6265 C   0  0  0  0  0  0
    9.3709    1.0828    2.6001 C   0  0  0  0  0  0
    6.8098    0.8269    2.4033 C   0  0  0  0  0  0
    6.3010    2.2178    3.0138 C   0  0  0  0  0  0
    5.2117    2.3692    4.1621 C   0  0  0  0  0  0
    4.1069    1.1469    4.2438 C   0  0  0  0  0  0
    3.7095    0.9490    5.7056 C   0  0  0  0  0  0
    2.7958    1.3234    3.3523 C   0  0  0  0  0  0
    2.6166    0.7023    1.8688 C   0  0  0  0  0  0
    1.2632    0.7817    1.0826 C   0  0  0  0  0  0
    0.9175    2.1323    0.3044 C   0  0  0  0  0  0
   -0.4473    2.4028   -0.4431 C   0  0  0  0  0  0
   -1.7437    2.6105    0.3837 C   0  0  0  0  0  0
   -2.3883    4.0497    0.3355 C   0  0  0  0  0  0
   -2.8321    4.5495   -1.0449 C   0  0  0  0  0  0
   -3.0486    3.5021   -2.1738 C   0  0  0  0  0  0
   -4.0246    2.3062   -1.9671 C   0  0  0  0  0  0
   -5.4451    2.6559   -1.5460 C   0  0  0  0  0  0
   -4.0273    1.4202   -3.1467 N   0  0  0  0  0  0
   -3.6111    4.2597   -3.2753 O   0  0  0  0  0  0
   -3.5237    4.0546    1.2076 O   0  0  0  0  0  0
    3.5658    1.4110    1.0543 O   0  0  0  0  0  0
    7.4788    2.8835    3.5451 O   0  0  0  0  0  0
    7.4183    4.2344    3.6741 C   0  0  0  0  0  0
    6.4295    4.9274    3.5282 O   0  0  0  0  0  0
    8.7629    4.7296    4.1303 C   0  0  0  0  0  0
    8.9989    4.4986    5.6314 C   0  0  0  0  0  0
    9.1434    3.0122    5.9827 C   0  0  0  0  0  0
   10.2911    2.3828    5.2277 C   0  0  0  0  0  0
   10.5796    1.1932    5.3005 O   0  0  0  0  0  0
   10.9687    3.2521    4.4636 O   0  0  0  0  0  0
   10.2937    5.2478    5.9751 C   0  0  0  0  0  0
   11.0278    5.7339    5.1283 O   0  0  0  0  0  0
   10.5814    5.2834    7.2835 O   0  0  0  0  0  0
    5.7566    0.1537    1.6048 O   0  0  0  0  0  0
    5.6204   -1.2198    1.7183 C   0  0  0  0  0  0
    6.0017   -1.8807    2.6755 O   0  0  0  0  0  0
    4.9282   -1.8407    0.4978 C   0  0  0  0  0  0
    5.7261   -1.7717   -0.8413 C   0  0  0  0  0  0
    5.7045   -3.0065   -1.7606 C   0  0  0  0  0  0
    7.0418   -3.6804   -1.8692 C   0  0  0  0  0  0
    8.1287   -3.1342   -1.7397 O   0  0  0  0  0  0
    6.9355   -4.9955   -2.1132 O   0  0  0  0  0  0
    5.4037   -0.5520   -1.7135 C   0  0  0  0  0  0
    4.5228    0.2397   -1.4418 O   0  0  0  0  0  0
    6.2360   -0.3492   -2.7563 O   0  0  0  0  0  0
   -4.1436    0.4555   -2.8397 H   0  0  0  0  0  0
   -3.1013    1.4492   -3.5792 H   0  0  0  0  0  0
   -4.4435    4.6344   -2.9174 H   0  0  0  0  0  0
   -4.1694    3.4069    0.8700 H   0  0  0  0  0  0
    3.6484    0.9387    0.2089 H   0  0  0  0  0  0
   11.7362    2.8793    3.9888 H   0  0  0  0  0  0
   11.4245    5.7511    7.5054 H   0  0  0  0  0  0
    7.8490   -5.3394   -2.2048 H   0  0  0  0  0  0
    6.0576    0.4604   -3.2844 H   0  0  0  0  0  0
  1  2  1  0  0  0
  2  3  1  0  0  0
  3  4  1  0  0  0
  4  5  1  0  0  0
  5  6  1  0  0  0
  5  7  1  0  0  0
  7  8  1  0  0  0
  7 39  1  0  0  0
  8  9  1  0  0  0
  8 27  1  0  0  0
  9 10  1  0  0  0
 10 11  1  0  0  0
 10 12  1  0  0  0
 12 13  1  0  0  0
 13 14  1  0  0  0
 13 26  1  0  0  0
 14 15  1  0  0  0
 15 16  1  0  0  0
 16 17  1  0  0  0
 17 18  1  0  0  0
 18 19  1  0  0  0
 18 25  1  0  0  0
 19 20  1  0  0  0
 20 21  1  0  0  0
 20 24  1  0  0  0
 21 22  1  0  0  0
 21 23  1  0  0  0
 23 51  1  0  0  0
 23 52  1  0  0  0
 24 53  1  0  0  0
 25 54  1  0  0  0
 26 55  1  0  0  0
 27 28  1  0  0  0
 28 29  2  0  0  0
 28 30  1  0  0  0
 30 31  1  0  0  0
 31 32  1  0  0  0
 31 36  1  0  0  0
 32 33  1  0  0  0
 33 34  2  0  0  0
 33 35  1  0  0  0
 35 56  1  0  0  0
 36 37  2  0  0  0
 36 38  1  0  0  0
 38 57  1  0  0  0
 39 40  1  0  0  0
 40 41  2  0  0  0
 40 42  1  0  0  0
 42 43  1  0  0  0
 43 44  1  0  0  0
 43 48  1  0  0  0
 44 45  1  0  0  0
 45 46  2  0  0  0
 45 47  1  0  0  0
 47 58  1  0  0  0
 48 49  2  0  0  0
 48 50  1  0  0  0
 50 59  1  0  0  0
M  END
>  <AUTHOR>
    GENERATED BY OPEN BABEL 2.4.1

>  <CHROM.1>
60.46711111,158.95223513,166.06225345,-52.84323362,-160.92145855,87.62901937
-27.69524964,156.90620799,147.25153331,95.09425502,173.97072907,81.63198735
166.88174725,-175.40362625,70.26987762,112.94018029,60.71492252,19.20322884
-62.22697444,55.52596158,54.13976722,-60.01191391,144.83260903,8.63795365
-77.79794495,68.48018891,58.72267879,-9.45968225,-177.29590410,177.88966091
178.89340652,22.58554488,66.68870352,139.18826781,-112.74318535,-5.75291442
-27.75231689,177.66013733,-176.76035838,4.77039020,1.66390642,1.33483230
-0.29354189,0.31086023,-2.39823470

>  <COMPND>
    UNNAMED

>  <MASTER>
        0    0    0    0    0    0    0    0  109    0  109    0

>  <Name>
FB1.pdb

>  <RI>
0

>  <Rbt.Current_Directory>
/home/fc/tossine/FB1_39/p3/2_clust01

>  <Rbt.Executable>
rbdock/0.1.0

>  <Rbt.Library>
librxdock.so/0.1.0

>  <Rbt.Parameter_File>
/cluster/rxdock/data/scripts/dock.prm

>  <Rbt.Receptor>
rx_4.prm

>  <SCORE>
3.81325

>  <SCORE.INTER>
-3.63813

>  <SCORE.INTER.CONST>
1

>  <SCORE.INTER.POLAR>
-1.87349

>  <SCORE.INTER.REPUL>
0.170679

>  <SCORE.INTER.ROT>
32

>  <SCORE.INTER.VDW>
-35.5217

>  <SCORE.INTER.norm>
-0.0727627

>  <SCORE.INTRA>
6.90485

>  <SCORE.INTRA.DIHEDRAL>
10.6316

>  <SCORE.INTRA.DIHEDRAL.0>
47.3121

>  <SCORE.INTRA.POLAR>
0.478077

>  <SCORE.INTRA.POLAR.0>
-1.47808

>  <SCORE.INTRA.REPUL>
0

>  <SCORE.INTRA.REPUL.0>
0

>  <SCORE.INTRA.VDW>
-0.0364021

>  <SCORE.INTRA.VDW.0>
-2.78316

>  <SCORE.INTRA.norm>
0.138097

>  <SCORE.RESTR>
0.546531

>  <SCORE.RESTR.CAVITY>
0.546531

>  <SCORE.RESTR.norm>
0.0109306

>  <SCORE.SYSTEM>
0

>  <SCORE.SYSTEM.CONST>
0

>  <SCORE.SYSTEM.DIHEDRAL>
0

>  <SCORE.SYSTEM.norm>
0

>  <SCORE.heavy>
50

>  <SCORE.norm>
0.0762649

$$$$
