FB1.pdb
  RxDock  10072014133D
librxdock.so/0.1.0
 59 58  0  0  0  0  0  0  0  0999 V2000
    5.7310    2.5357    6.4093 C   0  0  0  0  0  0
    4.5806    1.5410    6.2729 C   0  0  0  0  0  0
    3.9865    1.5486    4.8547 C   0  0  0  0  0  0
    3.2605    2.8693    4.4964 C   0  0  0  0  0  0
    3.3511    3.2854    2.9867 C   0  0  0  0  0  0
    4.8082    3.7060    2.6857 C   0  0  0  0  0  0
    2.8698    2.1509    1.9871 C   0  0  0  0  0  0
    1.3192    2.1480    1.5850 C   0  0  0  0  0  0
    0.6413    3.1437    0.5470 C   0  0  0  0  0  0
   -0.9537    2.8550    0.2404 C   0  0  0  0  0  0
   -1.4738    1.8579    1.2746 C   0  0  0  0  0  0
   -1.9057    4.1346    0.2053 C   0  0  0  0  0  0
   -3.2052    4.2731   -0.7491 C   0  0  0  0  0  0
   -4.5200    3.4569   -0.5019 C   0  0  0  0  0  0
   -5.8089    3.8148   -1.3736 C   0  0  0  0  0  0
   -5.8223    3.8881   -2.9512 C   0  0  0  0  0  0
   -7.1512    4.1947   -3.6911 C   0  0  0  0  0  0
   -7.8375    5.5774   -3.3651 C   0  0  0  0  0  0
   -8.5380    5.6842   -2.0048 C   0  0  0  0  0  0
   -9.4176    6.9357   -1.7247 C   0  0  0  0  0  0
  -10.7015    7.2045   -2.5642 C   0  0  0  0  0  0
  -11.5442    8.4023   -2.1487 C   0  0  0  0  0  0
  -10.3865    7.2555   -4.0045 N   0  0  0  0  0  0
   -9.8889    6.7568   -0.3646 O   0  0  0  0  0  0
   -6.8352    6.5969   -3.4418 O   0  0  0  0  0  0
   -3.5949    5.6529   -0.6448 O   0  0  0  0  0  0
    1.0407    0.8258    1.0497 O   0  0  0  0  0  0
    1.2837   -0.2334    1.8648 C   0  0  0  0  0  0
    1.7480   -0.1852    2.9880 O   0  0  0  0  0  0
    0.7868   -1.4800    1.1863 C   0  0  0  0  0  0
    1.8735   -2.5605    1.0673 C   0  0  0  0  0  0
    1.3061   -3.9222    0.6464 C   0  0  0  0  0  0
    0.9825   -4.7740    1.8519 C   0  0  0  0  0  0
    1.7464   -5.6153    2.3127 O   0  0  0  0  0  0
   -0.2260   -4.5214    2.3758 O   0  0  0  0  0  0
    2.8597   -2.0519    0.0067 C   0  0  0  0  0  0
    4.0060   -1.7191    0.2669 O   0  0  0  0  0  0
    2.3442   -1.9550   -1.2265 O   0  0  0  0  0  0
    3.7514    2.0770    0.7966 O   0  0  0  0  0  0
    4.7903    1.1613    0.8017 C   0  0  0  0  0  0
    4.9263    0.2669    1.6263 O   0  0  0  0  0  0
    5.7727    1.3864   -0.3553 C   0  0  0  0  0  0
    7.2149    0.8326   -0.1369 C   0  0  0  0  0  0
    7.9510    1.2225    1.1580 C   0  0  0  0  0  0
    8.8053    2.4472    1.0010 C   0  0  0  0  0  0
    9.3892    2.7839   -0.0199 O   0  0  0  0  0  0
    8.8597    3.1821    2.1223 O   0  0  0  0  0  0
    7.3443   -0.6878   -0.2912 C   0  0  0  0  0  0
    7.5116   -1.4353    0.6522 O   0  0  0  0  0  0
    7.1529   -1.1618   -1.5402 O   0  0  0  0  0  0
  -10.0908    6.3310   -4.3147 H   0  0  0  0  0  0
   -9.5676    7.8529   -4.1388 H   0  0  0  0  0  0
  -10.0975    7.6633   -0.0547 H   0  0  0  0  0  0
   -6.4738    6.6006   -4.3473 H   0  0  0  0  0  0
   -2.8744    6.1969   -1.0045 H   0  0  0  0  0  0
   -0.6971   -3.7590    1.9880 H   0  0  0  0  0  0
    1.3559   -1.9813   -1.2611 H   0  0  0  0  0  0
    8.2898    2.7324    2.7813 H   0  0  0  0  0  0
    6.9747   -0.4797   -2.2252 H   0  0  0  0  0  0
  1  2  1  0  0  0
  2  3  1  0  0  0
  3  4  1  0  0  0
  4  5  1  0  0  0
  5  6  1  0  0  0
  5  7  1  0  0  0
  7  8  1  0  0  0
  7 39  1  0  0  0
  8  9  1  0  0  0
  8 27  1  0  0  0
  9 10  1  0  0  0
 10 11  1  0  0  0
 10 12  1  0  0  0
 12 13  1  0  0  0
 13 14  1  0  0  0
 13 26  1  0  0  0
 14 15  1  0  0  0
 15 16  1  0  0  0
 16 17  1  0  0  0
 17 18  1  0  0  0
 18 19  1  0  0  0
 18 25  1  0  0  0
 19 20  1  0  0  0
 20 21  1  0  0  0
 20 24  1  0  0  0
 21 22  1  0  0  0
 21 23  1  0  0  0
 23 51  1  0  0  0
 23 52  1  0  0  0
 24 53  1  0  0  0
 25 54  1  0  0  0
 26 55  1  0  0  0
 27 28  1  0  0  0
 28 29  2  0  0  0
 28 30  1  0  0  0
 30 31  1  0  0  0
 31 32  1  0  0  0
 31 36  1  0  0  0
 32 33  1  0  0  0
 33 34  2  0  0  0
 33 35  1  0  0  0
 35 56  1  0  0  0
 36 37  2  0  0  0
 36 38  1  0  0  0
 38 57  1  0  0  0
 39 40  1  0  0  0
 40 41  2  0  0  0
 40 42  1  0  0  0
 42 43  1  0  0  0
 43 44  1  0  0  0
 43 48  1  0  0  0
 44 45  1  0  0  0
 45 46  2  0  0  0
 45 47  1  0  0  0
 47 58  1  0  0  0
 48 49  2  0  0  0
 48 50  1  0  0  0
 50 59  1  0  0  0
M  END
>  <AUTHOR>
    GENERATED BY OPEN BABEL 2.4.1

>  <CHROM.1>
-67.26556624,147.14215154,-69.80525918,90.31034961,76.68988413,94.97510767
176.01361848,58.31324735,12.00122073,147.08396892,71.54252873,171.57865478
63.59855076,52.65461720,177.71796862,60.57218254,-74.36897031,-170.49265515
60.42493673,64.16573025,175.91127683,156.34305657,66.74816367,-2.21799419
125.33521899,168.15732211,-92.97270074,112.27390168,-95.60812978,-6.87978076
15.81442705,11.40446799,156.40614434,-51.51477830,-92.69780035,-107.40426957
-32.32247212,-1.44070852,1.60045736,0.47050762,1.91669930,0.46998786,-0.40147199
-0.24593858,-0.05028587

>  <COMPND>
    UNNAMED

>  <MASTER>
        0    0    0    0    0    0    0    0  109    0  109    0

>  <Name>
FB1.pdb

>  <RI>
0

>  <Rbt.Current_Directory>
/home/fc/tossine/FB1_39/p3/2_clust01

>  <Rbt.Executable>
rbdock/0.1.0

>  <Rbt.Library>
librxdock.so/0.1.0

>  <Rbt.Parameter_File>
/cluster/rxdock/data/scripts/dock.prm

>  <Rbt.Receptor>
rx_4.prm

>  <SCORE>
37.3457

>  <SCORE.INTER>
26.0754

>  <SCORE.INTER.CONST>
1

>  <SCORE.INTER.POLAR>
-2.773

>  <SCORE.INTER.REPUL>
0.334162

>  <SCORE.INTER.ROT>
32

>  <SCORE.INTER.VDW>
-3.5672

>  <SCORE.INTER.norm>
0.521508

>  <SCORE.INTRA>
9.80419

>  <SCORE.INTRA.DIHEDRAL>
1.08708

>  <SCORE.INTRA.DIHEDRAL.0>
47.3121

>  <SCORE.INTRA.POLAR>
1.47808

>  <SCORE.INTRA.POLAR.0>
-1.47808

>  <SCORE.INTRA.REPUL>
0

>  <SCORE.INTRA.REPUL.0>
0

>  <SCORE.INTRA.VDW>
4.23519

>  <SCORE.INTRA.VDW.0>
-2.78316

>  <SCORE.INTRA.norm>
0.196084

>  <SCORE.RESTR>
1.46611

>  <SCORE.RESTR.CAVITY>
1.46611

>  <SCORE.RESTR.norm>
0.0293222

>  <SCORE.SYSTEM>
0

>  <SCORE.SYSTEM.CONST>
0

>  <SCORE.SYSTEM.DIHEDRAL>
0

>  <SCORE.SYSTEM.norm>
0

>  <SCORE.heavy>
50

>  <SCORE.norm>
0.746914

$$$$
