FB1.pdb
  RxDock  10072012463D
librxdock.so/0.1.0
 59 58  0  0  0  0  0  0  0  0999 V2000
    1.3711    2.3275    2.8868 C   0  0  0  0  0  0
    2.5716    2.4211    1.9480 C   0  0  0  0  0  0
    3.7137    3.2455    2.5646 C   0  0  0  0  0  0
    5.0445    3.1416    1.7785 C   0  0  0  0  0  0
    6.2654    2.6160    2.6112 C   0  0  0  0  0  0
    6.4279    3.5177    3.8567 C   0  0  0  0  0  0
    6.1379    1.0903    3.0281 C   0  0  0  0  0  0
    4.6698    0.4499    2.9973 C   0  0  0  0  0  0
    4.3457   -1.1019    3.1205 C   0  0  0  0  0  0
    2.7838   -1.5185    2.7912 C   0  0  0  0  0  0
    1.9523   -1.3227    4.0579 C   0  0  0  0  0  0
    2.0934   -0.7523    1.5743 C   0  0  0  0  0  0
    2.4373   -1.0262    0.0170 C   0  0  0  0  0  0
    1.6941   -0.2895   -1.1497 C   0  0  0  0  0  0
    1.5472    1.2983   -1.0709 C   0  0  0  0  0  0
    0.5029    2.0498   -0.1548 C   0  0  0  0  0  0
   -0.9095    2.3718   -0.7107 C   0  0  0  0  0  0
   -1.8061    3.3371    0.1572 C   0  0  0  0  0  0
   -2.7798    4.2367   -0.6142 C   0  0  0  0  0  0
   -3.9128    3.5613   -1.4379 C   0  0  0  0  0  0
   -3.5770    2.7236   -2.7071 C   0  0  0  0  0  0
   -4.7144    1.9013   -3.2966 C   0  0  0  0  0  0
   -2.9445    3.5656   -3.7402 N   0  0  0  0  0  0
   -4.5251    2.6211   -0.5186 O   0  0  0  0  0  0
   -2.5576    2.5356    1.0751 O   0  0  0  0  0  0
    3.8193   -0.6574   -0.1266 O   0  0  0  0  0  0
    3.9379    1.0586    4.0956 O   0  0  0  0  0  0
    4.4230    0.8551    5.3480 C   0  0  0  0  0  0
    5.0728   -0.1031    5.7209 O   0  0  0  0  0  0
    4.1099    2.0664    6.1824 C   0  0  0  0  0  0
    5.1701    2.3282    7.2641 C   0  0  0  0  0  0
    6.5635    2.5802    6.6739 C   0  0  0  0  0  0
    7.5793    2.8335    7.7636 C   0  0  0  0  0  0
    7.6568    3.8865    8.3871 O   0  0  0  0  0  0
    8.3930    1.7912    7.9882 O   0  0  0  0  0  0
    4.6924    3.5687    8.0314 C   0  0  0  0  0  0
    4.2453    4.5629    7.4800 O   0  0  0  0  0  0
    4.8517    3.4926    9.3599 O   0  0  0  0  0  0
    7.1233    0.2526    2.3020 O   0  0  0  0  0  0
    7.2164    0.3872    0.9268 C   0  0  0  0  0  0
    6.2631    0.5546    0.1774 O   0  0  0  0  0  0
    8.6653    0.3041    0.4287 C   0  0  0  0  0  0
    9.7257    1.0418    1.3038 C   0  0  0  0  0  0
   11.1516    1.1888    0.7418 C   0  0  0  0  0  0
   11.2045    2.0047   -0.5175 C   0  0  0  0  0  0
   10.2573    2.5806   -1.0350 O   0  0  0  0  0  0
   12.4395    2.0649   -1.0384 O   0  0  0  0  0  0
    9.2903    2.4256    1.8017 C   0  0  0  0  0  0
    8.6200    3.1872    1.1329 O   0  0  0  0  0  0
    9.6100    2.7076    3.0822 O   0  0  0  0  0  0
   -2.2982    4.2143   -3.2929 H   0  0  0  0  0  0
   -3.6623    4.1584   -4.1630 H   0  0  0  0  0  0
   -4.9412    3.1834    0.1684 H   0  0  0  0  0  0
   -3.2123    2.0230    0.5660 H   0  0  0  0  0  0
    3.9039    0.2848    0.0961 H   0  0  0  0  0  0
    8.2476    1.0172    7.4111 H   0  0  0  0  0  0
    4.8849    2.5705    9.7167 H   0  0  0  0  0  0
   13.0490    2.2602   -0.2956 H   0  0  0  0  0  0
   10.0519    1.9804    3.5743 H   0  0  0  0  0  0
  1  2  1  0  0  0
  2  3  1  0  0  0
  3  4  1  0  0  0
  4  5  1  0  0  0
  5  6  1  0  0  0
  5  7  1  0  0  0
  7  8  1  0  0  0
  7 39  1  0  0  0
  8  9  1  0  0  0
  8 27  1  0  0  0
  9 10  1  0  0  0
 10 11  1  0  0  0
 10 12  1  0  0  0
 12 13  1  0  0  0
 13 14  1  0  0  0
 13 26  1  0  0  0
 14 15  1  0  0  0
 15 16  1  0  0  0
 16 17  1  0  0  0
 17 18  1  0  0  0
 18 19  1  0  0  0
 18 25  1  0  0  0
 19 20  1  0  0  0
 20 21  1  0  0  0
 20 24  1  0  0  0
 21 22  1  0  0  0
 21 23  1  0  0  0
 23 51  1  0  0  0
 23 52  1  0  0  0
 24 53  1  0  0  0
 25 54  1  0  0  0
 26 55  1  0  0  0
 27 28  1  0  0  0
 28 29  2  0  0  0
 28 30  1  0  0  0
 30 31  1  0  0  0
 31 32  1  0  0  0
 31 36  1  0  0  0
 32 33  1  0  0  0
 33 34  2  0  0  0
 33 35  1  0  0  0
 35 56  1  0  0  0
 36 37  2  0  0  0
 36 38  1  0  0  0
 38 57  1  0  0  0
 39 40  1  0  0  0
 40 41  2  0  0  0
 40 42  1  0  0  0
 42 43  1  0  0  0
 43 44  1  0  0  0
 43 48  1  0  0  0
 44 45  1  0  0  0
 45 46  2  0  0  0
 45 47  1  0  0  0
 47 58  1  0  0  0
 48 49  2  0  0  0
 48 50  1  0  0  0
 50 59  1  0  0  0
M  END
>  <AUTHOR>
    GENERATED BY OPEN BABEL 2.4.1

>  <CHROM.1>
168.81456005,-122.21303016,-55.30288571,-19.54378356,168.48617939,-49.61157648
-169.56958129,-61.20715896,-84.35098596,73.29281480,177.54686535,48.78641486
-60.99090057,-77.18117932,-89.61602787,-169.64435934,148.21882429,63.43316009
-69.01802529,-68.05393881,169.32953474,66.40704361,39.60569408,-27.72988283
-148.66383202,60.67995511,179.99923734,-43.78716289,-75.34381855,1.63310837
-24.47454329,-38.55240157,-40.81592539,-170.29847215,62.67600108,-36.57618609
4.33505328,-45.98382405,-2.70037536,4.15354528,1.81667665,2.26048675,2.70948867
0.08000210,-1.69484114

>  <COMPND>
    UNNAMED

>  <MASTER>
        0    0    0    0    0    0    0    0  109    0  109    0

>  <Name>
FB1.pdb

>  <RI>
0

>  <Rbt.Current_Directory>
/home/fc/tossine/FB1_39/p3/2_clust01

>  <Rbt.Executable>
rbdock/0.1.0

>  <Rbt.Library>
librxdock.so/0.1.0

>  <Rbt.Parameter_File>
/cluster/rxdock/data/scripts/dock.prm

>  <Rbt.Receptor>
rx_2.prm

>  <SCORE>
18.3672

>  <SCORE.INTER>
1.26826

>  <SCORE.INTER.CONST>
1

>  <SCORE.INTER.POLAR>
-3.53955

>  <SCORE.INTER.REPUL>
0.896295

>  <SCORE.INTER.ROT>
32

>  <SCORE.INTER.VDW>
-28.5788

>  <SCORE.INTER.norm>
0.0253651

>  <SCORE.INTRA>
16.6083

>  <SCORE.INTRA.DIHEDRAL>
24.5879

>  <SCORE.INTRA.DIHEDRAL.0>
47.3121

>  <SCORE.INTRA.POLAR>
1.04882

>  <SCORE.INTRA.POLAR.0>
-1.47808

>  <SCORE.INTRA.REPUL>
0.0968386

>  <SCORE.INTRA.REPUL.0>
0

>  <SCORE.INTRA.VDW>
0.264162

>  <SCORE.INTRA.VDW.0>
-2.78316

>  <SCORE.INTRA.norm>
0.332166

>  <SCORE.RESTR>
0.490667

>  <SCORE.RESTR.CAVITY>
0.490667

>  <SCORE.RESTR.norm>
0.00981334

>  <SCORE.SYSTEM>
0

>  <SCORE.SYSTEM.CONST>
0

>  <SCORE.SYSTEM.DIHEDRAL>
0

>  <SCORE.SYSTEM.norm>
0

>  <SCORE.heavy>
50

>  <SCORE.norm>
0.367345

$$$$
