FB1.pdb
  RxDock  10072013213D
librxdock.so/0.1.0
 59 58  0  0  0  0  0  0  0  0999 V2000
    4.6972    3.7084    7.8845 C   0  0  0  0  0  0
    5.1874    2.4580    7.1581 C   0  0  0  0  0  0
    4.3279    2.1435    5.9226 C   0  0  0  0  0  0
    4.4086    3.2300    4.8214 C   0  0  0  0  0  0
    5.5318    3.0040    3.7500 C   0  0  0  0  0  0
    5.7976    4.3485    3.0342 C   0  0  0  0  0  0
    6.8725    2.4080    4.3542 C   0  0  0  0  0  0
    8.0641    2.1132    3.3250 C   0  0  0  0  0  0
    7.8772    1.6060    1.8296 C   0  0  0  0  0  0
    7.3250    0.0588    1.6797 C   0  0  0  0  0  0
    5.7996    0.0937    1.6014 C   0  0  0  0  0  0
    7.9045   -0.7787    0.4519 C   0  0  0  0  0  0
    7.0114   -1.3020   -0.7920 C   0  0  0  0  0  0
    6.3481   -0.3231   -1.8205 C   0  0  0  0  0  0
    4.7833   -0.0341   -1.6902 C   0  0  0  0  0  0
    3.6643   -1.1456   -1.7737 C   0  0  0  0  0  0
    2.3119   -0.9253   -1.0457 C   0  0  0  0  0  0
    2.3699   -0.7909    0.5252 C   0  0  0  0  0  0
    3.1030   -1.9095    1.2761 C   0  0  0  0  0  0
    3.5030   -1.6631    2.7586 C   0  0  0  0  0  0
    2.4203   -1.6450    3.8778 C   0  0  0  0  0  0
    2.1352   -0.2959    4.5230 C   0  0  0  0  0  0
    1.1731   -2.2812    3.4129 N   0  0  0  0  0  0
    4.3717   -2.7750    3.0946 O   0  0  0  0  0  0
    2.9996    0.4560    0.8389 O   0  0  0  0  0  0
    7.9040   -2.1163   -1.5710 O   0  0  0  0  0  0
    8.8042    3.3572    3.1932 O   0  0  0  0  0  0
   10.1587    3.2793    3.2617 C   0  0  0  0  0  0
   10.8097    2.2871    3.5283 O   0  0  0  0  0  0
   10.7331    4.6072    2.8514 C   0  0  0  0  0  0
   11.5098    5.2909    3.9879 C   0  0  0  0  0  0
   12.7707    6.0092    3.4902 C   0  0  0  0  0  0
   13.5856    5.1153    2.5846 C   0  0  0  0  0  0
   14.0398    5.4770    1.5045 O   0  0  0  0  0  0
   13.7688    3.8809    3.0763 O   0  0  0  0  0  0
   10.5400    6.3039    4.6118 C   0  0  0  0  0  0
    9.6185    6.8137    3.9926 O   0  0  0  0  0  0
   10.8165    6.6234    5.8836 O   0  0  0  0  0  0
    7.3315    3.1989    5.5219 O   0  0  0  0  0  0
    8.5251    2.8457    6.1291 C   0  0  0  0  0  0
    9.2432    1.9222    5.7686 O   0  0  0  0  0  0
    8.8624    3.7485    7.3230 C   0  0  0  0  0  0
    8.3011    3.2845    8.7029 C   0  0  0  0  0  0
    8.9462    2.0562    9.3703 C   0  0  0  0  0  0
    8.5750    1.9125   10.8180 C   0  0  0  0  0  0
    9.3220    2.1010   11.7683 O   0  0  0  0  0  0
    7.2908    1.5620   10.9861 O   0  0  0  0  0  0
    8.2251    4.3890    9.7644 C   0  0  0  0  0  0
    8.8915    5.4037    9.7102 O   0  0  0  0  0  0
    7.2856    4.2133   10.7171 O   0  0  0  0  0  0
    0.3974   -1.6343    3.5485 H   0  0  0  0  0  0
    0.9640   -3.0747    4.0229 H   0  0  0  0  0  0
    5.1612   -2.6516    2.5264 H   0  0  0  0  0  0
    2.9174    0.6053    1.7988 H   0  0  0  0  0  0
    8.2432   -2.8239   -0.9975 H   0  0  0  0  0  0
   14.2146    3.2546    2.4742 H   0  0  0  0  0  0
   11.5860    6.1367    6.2706 H   0  0  0  0  0  0
    6.8954    1.5043   10.0908 H   0  0  0  0  0  0
    7.0835    5.0083   11.2588 H   0  0  0  0  0  0
  1  2  1  0  0  0
  2  3  1  0  0  0
  3  4  1  0  0  0
  4  5  1  0  0  0
  5  6  1  0  0  0
  5  7  1  0  0  0
  7  8  1  0  0  0
  7 39  1  0  0  0
  8  9  1  0  0  0
  8 27  1  0  0  0
  9 10  1  0  0  0
 10 11  1  0  0  0
 10 12  1  0  0  0
 12 13  1  0  0  0
 13 14  1  0  0  0
 13 26  1  0  0  0
 14 15  1  0  0  0
 15 16  1  0  0  0
 16 17  1  0  0  0
 17 18  1  0  0  0
 18 19  1  0  0  0
 18 25  1  0  0  0
 19 20  1  0  0  0
 20 21  1  0  0  0
 20 24  1  0  0  0
 21 22  1  0  0  0
 21 23  1  0  0  0
 23 51  1  0  0  0
 23 52  1  0  0  0
 24 53  1  0  0  0
 25 54  1  0  0  0
 26 55  1  0  0  0
 27 28  1  0  0  0
 28 29  2  0  0  0
 28 30  1  0  0  0
 30 31  1  0  0  0
 31 32  1  0  0  0
 31 36  1  0  0  0
 32 33  1  0  0  0
 33 34  2  0  0  0
 33 35  1  0  0  0
 35 56  1  0  0  0
 36 37  2  0  0  0
 36 38  1  0  0  0
 38 57  1  0  0  0
 39 40  1  0  0  0
 40 41  2  0  0  0
 40 42  1  0  0  0
 42 43  1  0  0  0
 43 44  1  0  0  0
 43 48  1  0  0  0
 44 45  1  0  0  0
 45 46  2  0  0  0
 45 47  1  0  0  0
 47 58  1  0  0  0
 48 49  2  0  0  0
 48 50  1  0  0  0
 50 59  1  0  0  0
M  END
>  <AUTHOR>
    GENERATED BY OPEN BABEL 2.4.1

>  <CHROM.1>
64.47165141,90.68386531,-161.31997287,178.64826596,-34.85527299,-177.08148272
-69.27798975,133.87577956,91.57512829,-114.71639043,66.62708883,-102.85722804
57.75621930,-59.26546576,153.00775305,-62.53445603,-52.46637401,164.89747545
171.59684094,72.35523093,-110.49649612,65.43880897,-125.72377386,-6.26709515
116.74289849,141.63266430,-48.36784184,-26.58384584,132.88648410,174.14111485
-2.53216343,0.31743427,89.19577144,72.13169553,165.46628616,-21.39708070
-108.87037776,-1.26560441,-165.48699247,7.32288910,2.06195304,4.14789545
0.82617139,0.55422951,1.32035866

>  <COMPND>
    UNNAMED

>  <MASTER>
        0    0    0    0    0    0    0    0  109    0  109    0

>  <Name>
FB1.pdb

>  <RI>
0

>  <Rbt.Current_Directory>
/home/fc/tossine/FB1_39/p3/2_clust01

>  <Rbt.Executable>
rbdock/0.1.0

>  <Rbt.Library>
librxdock.so/0.1.0

>  <Rbt.Parameter_File>
/cluster/rxdock/data/scripts/dock.prm

>  <Rbt.Receptor>
rx_3.prm

>  <SCORE>
2.25974

>  <SCORE.INTER>
-9.58276

>  <SCORE.INTER.CONST>
1

>  <SCORE.INTER.POLAR>
-4.43192

>  <SCORE.INTER.REPUL>
0.715417

>  <SCORE.INTER.ROT>
32

>  <SCORE.INTER.VDW>
-35.4913

>  <SCORE.INTER.norm>
-0.191655

>  <SCORE.INTRA>
11.4638

>  <SCORE.INTRA.DIHEDRAL>
11.2004

>  <SCORE.INTRA.DIHEDRAL.0>
47.3121

>  <SCORE.INTRA.POLAR>
1.47808

>  <SCORE.INTRA.POLAR.0>
-1.47808

>  <SCORE.INTRA.REPUL>
0

>  <SCORE.INTRA.REPUL.0>
0

>  <SCORE.INTRA.VDW>
0.838115

>  <SCORE.INTRA.VDW.0>
-2.78316

>  <SCORE.INTRA.norm>
0.229275

>  <SCORE.RESTR>
0.378747

>  <SCORE.RESTR.CAVITY>
0.378747

>  <SCORE.RESTR.norm>
0.00757495

>  <SCORE.SYSTEM>
0

>  <SCORE.SYSTEM.CONST>
0

>  <SCORE.SYSTEM.DIHEDRAL>
0

>  <SCORE.SYSTEM.norm>
0

>  <SCORE.heavy>
50

>  <SCORE.norm>
0.0451949

$$$$
