FB1.pdb
  RxDock  10072014043D
librxdock.so/0.1.0
 59 58  0  0  0  0  0  0  0  0999 V2000
   -0.6681   -4.0381    1.9453 C   0  0  0  0  0  0
   -0.3369   -2.9835    2.9986 C   0  0  0  0  0  0
    1.1753   -2.7178    3.0824 C   0  0  0  0  0  0
    1.5419   -1.5167    3.9894 C   0  0  0  0  0  0
    3.0337   -1.0426    3.8885 C   0  0  0  0  0  0
    3.9423   -2.1883    4.3910 C   0  0  0  0  0  0
    3.4548   -0.5830    2.4292 C   0  0  0  0  0  0
    3.4253    0.9899    2.1270 C   0  0  0  0  0  0
    2.1256    1.8252    1.7512 C   0  0  0  0  0  0
    1.5445    1.5676    0.2289 C   0  0  0  0  0  0
    2.0869    0.2323   -0.2779 C   0  0  0  0  0  0
   -0.0423    1.5962    0.0679 C   0  0  0  0  0  0
   -1.0126    2.6477    0.8238 C   0  0  0  0  0  0
   -2.5603    2.4300    0.9386 C   0  0  0  0  0  0
   -3.5159    3.2568   -0.0373 C   0  0  0  0  0  0
   -3.4433    4.8220   -0.2363 C   0  0  0  0  0  0
   -3.7129    5.4277   -1.6390 C   0  0  0  0  0  0
   -5.1282    6.0883   -1.8621 C   0  0  0  0  0  0
   -5.2699    7.5532   -1.4302 C   0  0  0  0  0  0
   -6.6936    8.1780   -1.3978 C   0  0  0  0  0  0
   -7.5488    8.2662   -2.6964 C   0  0  0  0  0  0
   -8.7087    7.2870   -2.8115 C   0  0  0  0  0  0
   -8.0013    9.6500   -2.9346 N   0  0  0  0  0  0
   -7.4513    7.3202   -0.5068 O   0  0  0  0  0  0
   -5.4460    5.9920   -3.2547 O   0  0  0  0  0  0
   -0.5367    2.6805    2.1800 O   0  0  0  0  0  0
    3.9401    1.6425    3.3193 O   0  0  0  0  0  0
    5.1577    1.2389    3.7663 C   0  0  0  0  0  0
    6.0640    0.7977    3.0856 O   0  0  0  0  0  0
    5.2416    1.5230    5.2407 C   0  0  0  0  0  0
    5.4962    3.0086    5.5420 C   0  0  0  0  0  0
    4.7297    3.9411    4.5954 C   0  0  0  0  0  0
    5.4929    4.1599    3.3097 C   0  0  0  0  0  0
    5.1094    3.7580    2.2164 O   0  0  0  0  0  0
    6.6362    4.8411    3.4763 O   0  0  0  0  0  0
    5.0323    3.2312    6.9881 C   0  0  0  0  0  0
    3.8645    3.4219    7.2921 O   0  0  0  0  0  0
    6.0231    3.2486    7.8903 O   0  0  0  0  0  0
    4.7403   -1.2015    2.0231 O   0  0  0  0  0  0
    5.0890   -1.1772    0.6830 C   0  0  0  0  0  0
    5.2523   -2.1715   -0.0121 O   0  0  0  0  0  0
    5.2523    0.2516    0.1480 C   0  0  0  0  0  0
    6.6456    0.5890   -0.4680 C   0  0  0  0  0  0
    7.1755   -0.3145   -1.5964 C   0  0  0  0  0  0
    8.6367   -0.6309   -1.4572 C   0  0  0  0  0  0
    9.4692    0.0724   -0.9014 O   0  0  0  0  0  0
    8.9601   -1.8130   -2.0035 O   0  0  0  0  0  0
    6.7996    2.0402   -0.9397 C   0  0  0  0  0  0
    5.8511    2.7559   -1.1946 O   0  0  0  0  0  0
    8.0631    2.5141   -0.9531 O   0  0  0  0  0  0
   -9.0148    9.6917   -2.8362 H   0  0  0  0  0  0
   -7.8216    9.8886   -3.9125 H   0  0  0  0  0  0
   -8.2482    7.8439   -0.2787 H   0  0  0  0  0  0
   -6.2212    6.5569   -3.4296 H   0  0  0  0  0  0
   -0.6522    1.7939    2.5607 H   0  0  0  0  0  0
    6.7097    5.3323    4.3170 H   0  0  0  0  0  0
    5.8128    3.7435    8.7208 H   0  0  0  0  0  0
    8.1309   -2.1929   -2.3632 H   0  0  0  0  0  0
    8.7558    1.8700   -0.6856 H   0  0  0  0  0  0
  1  2  1  0  0  0
  2  3  1  0  0  0
  3  4  1  0  0  0
  4  5  1  0  0  0
  5  6  1  0  0  0
  5  7  1  0  0  0
  7  8  1  0  0  0
  7 39  1  0  0  0
  8  9  1  0  0  0
  8 27  1  0  0  0
  9 10  1  0  0  0
 10 11  1  0  0  0
 10 12  1  0  0  0
 12 13  1  0  0  0
 13 14  1  0  0  0
 13 26  1  0  0  0
 14 15  1  0  0  0
 15 16  1  0  0  0
 16 17  1  0  0  0
 17 18  1  0  0  0
 18 19  1  0  0  0
 18 25  1  0  0  0
 19 20  1  0  0  0
 20 21  1  0  0  0
 20 24  1  0  0  0
 21 22  1  0  0  0
 21 23  1  0  0  0
 23 51  1  0  0  0
 23 52  1  0  0  0
 24 53  1  0  0  0
 25 54  1  0  0  0
 26 55  1  0  0  0
 27 28  1  0  0  0
 28 29  2  0  0  0
 28 30  1  0  0  0
 30 31  1  0  0  0
 31 32  1  0  0  0
 31 36  1  0  0  0
 32 33  1  0  0  0
 33 34  2  0  0  0
 33 35  1  0  0  0
 35 56  1  0  0  0
 36 37  2  0  0  0
 36 38  1  0  0  0
 38 57  1  0  0  0
 39 40  1  0  0  0
 40 41  2  0  0  0
 40 42  1  0  0  0
 42 43  1  0  0  0
 43 44  1  0  0  0
 43 48  1  0  0  0
 44 45  1  0  0  0
 45 46  2  0  0  0
 45 47  1  0  0  0
 47 58  1  0  0  0
 48 49  2  0  0  0
 48 50  1  0  0  0
 50 59  1  0  0  0
M  END
>  <AUTHOR>
    GENERATED BY OPEN BABEL 2.4.1

>  <CHROM.1>
171.77865109,-168.86620466,-63.98282599,97.77432009,-81.47633713,164.38621857
-72.98692814,54.45860158,20.27377982,40.08628399,-164.00640503,-102.07684803
-62.93794843,-50.88017267,143.94548128,102.70063528,85.44219381,-169.64609922
-168.28203272,-60.71779303,105.90858818,163.95085255,-113.43798516,29.28441897
-77.09175315,38.70096943,-84.56420682,-82.24432717,113.32616384,-17.39438374
155.88257538,-117.95217153,122.32810599,54.81686451,-137.92860370,-21.02819196
-27.38873700,-0.51355196,1.82677029,1.93626639,2.19776697,1.22397972,-0.17625168
0.50615819,-1.75441883

>  <COMPND>
    UNNAMED

>  <MASTER>
        0    0    0    0    0    0    0    0  109    0  109    0

>  <Name>
FB1.pdb

>  <RI>
0

>  <Rbt.Current_Directory>
/home/fc/tossine/FB1_39/p3/2_clust01

>  <Rbt.Executable>
rbdock/0.1.0

>  <Rbt.Library>
librxdock.so/0.1.0

>  <Rbt.Parameter_File>
/cluster/rxdock/data/scripts/dock.prm

>  <Rbt.Receptor>
rx_4.prm

>  <SCORE>
41.1094

>  <SCORE.INTER>
4.05737

>  <SCORE.INTER.CONST>
1

>  <SCORE.INTER.POLAR>
-1.75723

>  <SCORE.INTER.REPUL>
0.697012

>  <SCORE.INTER.ROT>
32

>  <SCORE.INTER.VDW>
-30.8531

>  <SCORE.INTER.norm>
0.0811474

>  <SCORE.INTRA>
35.3216

>  <SCORE.INTRA.DIHEDRAL>
42.2317

>  <SCORE.INTRA.DIHEDRAL.0>
47.3121

>  <SCORE.INTRA.POLAR>
1.15914

>  <SCORE.INTRA.POLAR.0>
-1.47808

>  <SCORE.INTRA.REPUL>
0

>  <SCORE.INTRA.REPUL.0>
0

>  <SCORE.INTRA.VDW>
10.2647

>  <SCORE.INTRA.VDW.0>
-2.78316

>  <SCORE.INTRA.norm>
0.706433

>  <SCORE.RESTR>
1.73037

>  <SCORE.RESTR.CAVITY>
1.73037

>  <SCORE.RESTR.norm>
0.0346074

>  <SCORE.SYSTEM>
0

>  <SCORE.SYSTEM.CONST>
0

>  <SCORE.SYSTEM.DIHEDRAL>
0

>  <SCORE.SYSTEM.norm>
0

>  <SCORE.heavy>
50

>  <SCORE.norm>
0.822187

$$$$
