FB1.pdb
  RxDock  10072010533D
librxdock.so/0.1.0
 59 58  0  0  0  0  0  0  0  0999 V2000
   -6.8892   14.9621   -5.5694 C   0  0  0  0  0  0
   -6.6720   14.2312   -4.2465 C   0  0  0  0  0  0
   -7.2392   12.8026   -4.2855 C   0  0  0  0  0  0
   -6.9053   11.9709   -3.0219 C   0  0  0  0  0  0
   -7.8538   10.7483   -2.7649 C   0  0  0  0  0  0
   -7.2501    9.8967   -1.6244 C   0  0  0  0  0  0
   -9.3482   11.1652   -2.4319 C   0  0  0  0  0  0
  -10.4625   10.0194   -2.5398 C   0  0  0  0  0  0
  -10.3178    8.6788   -3.3824 C   0  0  0  0  0  0
  -10.2445    7.2948   -2.4876 C   0  0  0  0  0  0
  -11.6634    6.7580   -2.3073 C   0  0  0  0  0  0
   -9.3036    6.1389   -3.0564 C   0  0  0  0  0  0
   -8.5967    5.0097   -2.1378 C   0  0  0  0  0  0
   -7.6796    5.3710   -0.9194 C   0  0  0  0  0  0
   -6.2974    6.1167   -1.2068 C   0  0  0  0  0  0
   -5.0427    5.4340   -1.8808 C   0  0  0  0  0  0
   -5.2145    4.6742   -3.2227 C   0  0  0  0  0  0
   -4.3109    3.3979   -3.4315 C   0  0  0  0  0  0
   -5.0353    2.1147   -3.8571 C   0  0  0  0  0  0
   -6.3001    1.6836   -3.0616 C   0  0  0  0  0  0
   -6.2494    1.5405   -1.5116 C   0  0  0  0  0  0
   -5.4606    0.3585   -0.9657 C   0  0  0  0  0  0
   -5.8137    2.8013   -0.8815 N   0  0  0  0  0  0
   -7.2671    2.7357   -3.3101 O   0  0  0  0  0  0
   -3.3242    3.7123   -4.4201 O   0  0  0  0  0  0
   -9.6844    4.2548   -1.5778 O   0  0  0  0  0  0
  -10.7116    9.5657   -1.1816 O   0  0  0  0  0  0
  -11.9043    9.9050   -0.6269 C   0  0  0  0  0  0
  -12.9702    9.9871   -1.2071 O   0  0  0  0  0  0
  -11.7111   10.0660    0.8557 C   0  0  0  0  0  0
  -11.1650    8.7929    1.5215 C   0  0  0  0  0  0
  -11.9242    7.5313    1.0910 C   0  0  0  0  0  0
  -11.4737    6.3266    1.8841 C   0  0  0  0  0  0
  -12.0568    5.9140    2.8808 O   0  0  0  0  0  0
  -10.3698    5.7453    1.3920 O   0  0  0  0  0  0
   -9.6939    8.6917    1.0953 C   0  0  0  0  0  0
   -8.7994    9.3296    1.6295 O   0  0  0  0  0  0
   -9.4750    7.8799    0.0517 O   0  0  0  0  0  0
   -9.4259   11.8944   -1.1426 O   0  0  0  0  0  0
   -9.0657   13.2314   -1.1188 C   0  0  0  0  0  0
   -8.7363   13.8815   -2.1024 O   0  0  0  0  0  0
   -9.1234   13.8266    0.2942 C   0  0  0  0  0  0
   -7.9195   14.7340    0.6968 C   0  0  0  0  0  0
   -7.6710   16.0123   -0.1245 C   0  0  0  0  0  0
   -6.3377   16.6418    0.1593 C   0  0  0  0  0  0
   -6.1468   17.6194    0.8696 O   0  0  0  0  0  0
   -5.3274   15.9989   -0.4459 O   0  0  0  0  0  0
   -7.8893   15.1336    2.1772 C   0  0  0  0  0  0
   -8.8955   15.2718    2.8445 O   0  0  0  0  0  0
   -6.6608   15.2202    2.7290 O   0  0  0  0  0  0
   -4.7989    2.8717   -0.9417 H   0  0  0  0  0  0
   -6.0154    2.7528    0.1198 H   0  0  0  0  0  0
   -8.0816    2.4346   -2.8549 H   0  0  0  0  0  0
   -2.6484    3.0097   -4.4096 H   0  0  0  0  0  0
   -9.3256    3.4188   -1.2359 H   0  0  0  0  0  0
  -10.0314    4.9891    1.9089 H   0  0  0  0  0  0
   -8.5221    7.7724   -0.1914 H   0  0  0  0  0  0
   -4.4992   16.4258   -0.1407 H   0  0  0  0  0  0
   -5.9112   15.0819    2.1082 H   0  0  0  0  0  0
  1  2  1  0  0  0
  2  3  1  0  0  0
  3  4  1  0  0  0
  4  5  1  0  0  0
  5  6  1  0  0  0
  5  7  1  0  0  0
  7  8  1  0  0  0
  7 39  1  0  0  0
  8  9  1  0  0  0
  8 27  1  0  0  0
  9 10  1  0  0  0
 10 11  1  0  0  0
 10 12  1  0  0  0
 12 13  1  0  0  0
 13 14  1  0  0  0
 13 26  1  0  0  0
 14 15  1  0  0  0
 15 16  1  0  0  0
 16 17  1  0  0  0
 17 18  1  0  0  0
 18 19  1  0  0  0
 18 25  1  0  0  0
 19 20  1  0  0  0
 20 21  1  0  0  0
 20 24  1  0  0  0
 21 22  1  0  0  0
 21 23  1  0  0  0
 23 51  1  0  0  0
 23 52  1  0  0  0
 24 53  1  0  0  0
 25 54  1  0  0  0
 26 55  1  0  0  0
 27 28  1  0  0  0
 28 29  2  0  0  0
 28 30  1  0  0  0
 30 31  1  0  0  0
 31 32  1  0  0  0
 31 36  1  0  0  0
 32 33  1  0  0  0
 33 34  2  0  0  0
 33 35  1  0  0  0
 35 56  1  0  0  0
 36 37  2  0  0  0
 36 38  1  0  0  0
 38 57  1  0  0  0
 39 40  1  0  0  0
 40 41  2  0  0  0
 40 42  1  0  0  0
 42 43  1  0  0  0
 43 44  1  0  0  0
 43 48  1  0  0  0
 44 45  1  0  0  0
 45 46  2  0  0  0
 45 47  1  0  0  0
 47 58  1  0  0  0
 48 49  2  0  0  0
 48 50  1  0  0  0
 50 59  1  0  0  0
M  END
>  <AUTHOR>
    GENERATED BY OPEN BABEL 2.4.1

>  <CHROM.1>
173.66889102,158.74124808,170.53172111,164.13439263,-21.32584502,78.78702728
112.93330720,108.93930135,90.97014539,153.58272980,-55.11355356,-65.83483533
163.63077729,-71.29011054,51.66496455,-145.41857161,128.92732925,-48.86223532
167.51057748,-53.07143471,-71.17794491,176.53011921,-80.24591418,35.45279628
-58.04901904,-47.52540578,-173.22732947,80.50161216,96.23435538,177.23924682
-176.62881275,3.20534446,136.20525756,61.52445717,-167.75807534,-30.63523090
-101.66447144,-174.97359762,4.25626052,-8.29076912,9.03880703,-1.10112494
-1.66837763,-0.60296169,-3.04259491

>  <COMPND>
    UNNAMED

>  <MASTER>
        0    0    0    0    0    0    0    0  109    0  109    0

>  <Name>
FB1.pdb

>  <RI>
0

>  <Rbt.Current_Directory>
/home/fc/tossine/FB1_39/p3/2_clust01

>  <Rbt.Executable>
rbdock/0.1.0

>  <Rbt.Library>
librxdock.so/0.1.0

>  <Rbt.Parameter_File>
/cluster/rxdock/data/scripts/dock.prm

>  <Rbt.Receptor>
rx_0.prm

>  <SCORE>
8.65069

>  <SCORE.INTER>
2.81045

>  <SCORE.INTER.CONST>
1

>  <SCORE.INTER.POLAR>
-1.36456

>  <SCORE.INTER.REPUL>
0.342391

>  <SCORE.INTER.ROT>
32

>  <SCORE.INTER.VDW>
-31.662

>  <SCORE.INTER.norm>
0.0562089

>  <SCORE.INTRA>
5.73847

>  <SCORE.INTRA.DIHEDRAL>
15.1085

>  <SCORE.INTRA.DIHEDRAL.0>
47.3121

>  <SCORE.INTRA.POLAR>
1.47808

>  <SCORE.INTRA.POLAR.0>
-1.47808

>  <SCORE.INTRA.REPUL>
0

>  <SCORE.INTRA.REPUL.0>
0

>  <SCORE.INTRA.VDW>
-6.84125

>  <SCORE.INTRA.VDW.0>
-2.78316

>  <SCORE.INTRA.norm>
0.114769

>  <SCORE.RESTR>
0.101771

>  <SCORE.RESTR.CAVITY>
0.101771

>  <SCORE.RESTR.norm>
0.00203541

>  <SCORE.SYSTEM>
0

>  <SCORE.SYSTEM.CONST>
0

>  <SCORE.SYSTEM.DIHEDRAL>
0

>  <SCORE.SYSTEM.norm>
0

>  <SCORE.heavy>
50

>  <SCORE.norm>
0.173014

$$$$
