FB1.pdb
  RxDock  10072011483D
librxdock.so/0.1.0
 59 58  0  0  0  0  0  0  0  0999 V2000
    8.0802    0.6802   -2.4653 C   0  0  0  0  0  0
    7.9538    0.2418   -1.0082 C   0  0  0  0  0  0
    7.6846   -1.2673   -0.8889 C   0  0  0  0  0  0
    7.2587   -1.7081    0.5338 C   0  0  0  0  0  0
    5.7932   -1.3192    0.9359 C   0  0  0  0  0  0
    5.3974   -2.1425    2.1834 C   0  0  0  0  0  0
    5.5989    0.2340    1.1960 C   0  0  0  0  0  0
    4.0934    0.7796    1.2408 C   0  0  0  0  0  0
    2.8263    0.0177    0.6559 C   0  0  0  0  0  0
    1.6815    0.9879   -0.0293 C   0  0  0  0  0  0
    2.2913    2.3697   -0.2595 C   0  0  0  0  0  0
    1.0309    0.4576   -1.3859 C   0  0  0  0  0  0
   -0.4971    0.7467   -1.8334 C   0  0  0  0  0  0
   -1.6304    1.0619   -0.7979 C   0  0  0  0  0  0
   -1.5723    2.4495   -0.0104 C   0  0  0  0  0  0
   -1.8258    3.8597   -0.6750 C   0  0  0  0  0  0
   -3.0833    4.0738   -1.5583 C   0  0  0  0  0  0
   -4.4812    3.9534   -0.8367 C   0  0  0  0  0  0
   -5.7181    4.2238   -1.7024 C   0  0  0  0  0  0
   -7.0977    4.3543   -0.9967 C   0  0  0  0  0  0
   -7.3406    5.4659    0.0666 C   0  0  0  0  0  0
   -7.0636    6.8966   -0.3734 C   0  0  0  0  0  0
   -8.6890    5.3464    0.6532 N   0  0  0  0  0  0
   -8.0317    4.6479   -2.0669 O   0  0  0  0  0  0
   -4.5858    2.6327   -0.2939 O   0  0  0  0  0  0
   -0.4222    1.9107   -2.6736 O   0  0  0  0  0  0
    3.7758    0.9809    2.6447 O   0  0  0  0  0  0
    3.5207   -0.1293    3.3848 C   0  0  0  0  0  0
    2.6862   -0.9800    3.1415 O   0  0  0  0  0  0
    4.5157   -0.1897    4.5108 C   0  0  0  0  0  0
    4.2839    0.9067    5.5628 C   0  0  0  0  0  0
    5.0008    2.2175    5.2148 C   0  0  0  0  0  0
    5.2845    3.0301    6.4568 C   0  0  0  0  0  0
    6.2101    2.7934    7.2255 O   0  0  0  0  0  0
    4.4245    4.0427    6.6408 O   0  0  0  0  0  0
    2.7666    1.1338    5.6081 C   0  0  0  0  0  0
    2.2567    2.2432    5.5653 O   0  0  0  0  0  0
    2.0437    0.0142    5.7486 O   0  0  0  0  0  0
    6.3864    0.6829    2.3700 O   0  0  0  0  0  0
    7.6852    1.1180    2.1652 C   0  0  0  0  0  0
    8.6017    0.4110    1.7670 O   0  0  0  0  0  0
    7.8611    2.6063    2.4942 C   0  0  0  0  0  0
    8.5926    2.9216    3.8358 C   0  0  0  0  0  0
   10.1066    2.6534    3.9145 C   0  0  0  0  0  0
   10.4383    1.3584    4.5981 C   0  0  0  0  0  0
   10.4625    1.1757    5.8075 O   0  0  0  0  0  0
   10.6990    0.3709    3.7280 O   0  0  0  0  0  0
    8.3549    4.3378    4.3742 C   0  0  0  0  0  0
    7.6223    5.1380    3.8267 O   0  0  0  0  0  0
    8.9313    4.6098    5.5638 O   0  0  0  0  0  0
   -9.3419    5.9063    0.1066 H   0  0  0  0  0  0
   -8.6818    5.7794    1.5794 H   0  0  0  0  0  0
   -7.9853    3.8657   -2.6563 H   0  0  0  0  0  0
   -4.5209    1.9957   -1.0291 H   0  0  0  0  0  0
   -1.1544    1.8690   -3.3113 H   0  0  0  0  0  0
    4.6948    4.7030    7.3075 H   0  0  0  0  0  0
    2.5788   -0.8012    5.9145 H   0  0  0  0  0  0
   10.4459    0.7034    2.8410 H   0  0  0  0  0  0
    8.7794    5.5188    5.9057 H   0  0  0  0  0  0
  1  2  1  0  0  0
  2  3  1  0  0  0
  3  4  1  0  0  0
  4  5  1  0  0  0
  5  6  1  0  0  0
  5  7  1  0  0  0
  7  8  1  0  0  0
  7 39  1  0  0  0
  8  9  1  0  0  0
  8 27  1  0  0  0
  9 10  1  0  0  0
 10 11  1  0  0  0
 10 12  1  0  0  0
 12 13  1  0  0  0
 13 14  1  0  0  0
 13 26  1  0  0  0
 14 15  1  0  0  0
 15 16  1  0  0  0
 16 17  1  0  0  0
 17 18  1  0  0  0
 18 19  1  0  0  0
 18 25  1  0  0  0
 19 20  1  0  0  0
 20 21  1  0  0  0
 20 24  1  0  0  0
 21 22  1  0  0  0
 21 23  1  0  0  0
 23 51  1  0  0  0
 23 52  1  0  0  0
 24 53  1  0  0  0
 25 54  1  0  0  0
 26 55  1  0  0  0
 27 28  1  0  0  0
 28 29  2  0  0  0
 28 30  1  0  0  0
 30 31  1  0  0  0
 31 32  1  0  0  0
 31 36  1  0  0  0
 32 33  1  0  0  0
 33 34  2  0  0  0
 33 35  1  0  0  0
 35 56  1  0  0  0
 36 37  2  0  0  0
 36 38  1  0  0  0
 38 57  1  0  0  0
 39 40  1  0  0  0
 40 41  2  0  0  0
 40 42  1  0  0  0
 42 43  1  0  0  0
 43 44  1  0  0  0
 43 48  1  0  0  0
 44 45  1  0  0  0
 45 46  2  0  0  0
 45 47  1  0  0  0
 47 58  1  0  0  0
 48 49  2  0  0  0
 48 50  1  0  0  0
 50 59  1  0  0  0
M  END
>  <AUTHOR>
    GENERATED BY OPEN BABEL 2.4.1

>  <CHROM.1>
-167.98990803,74.08766284,164.72146001,164.79716333,-18.24380657,89.76352708
-143.69184248,-75.54078069,14.70505433,147.67535754,-24.78849770,68.71321084
151.24558241,69.96624331,49.45233093,64.19828518,177.53376413,-169.90121851
-60.12059328,60.38853935,55.22553804,61.58518966,-90.59290289,-55.32160193
69.74149592,-87.15491533,-154.82000968,-131.77380027,78.57476084,-166.54917719
7.01373636,-65.01877157,104.65597382,71.74198745,-99.72095531,2.29593544
-79.84568239,-10.21156249,179.84955806,2.96889302,1.91337647,1.89078731,-0.19749704
0.31247938,-2.03323656

>  <COMPND>
    UNNAMED

>  <MASTER>
        0    0    0    0    0    0    0    0  109    0  109    0

>  <Name>
FB1.pdb

>  <RI>
0

>  <Rbt.Current_Directory>
/home/fc/tossine/FB1_39/p3/2_clust01

>  <Rbt.Executable>
rbdock/0.1.0

>  <Rbt.Library>
librxdock.so/0.1.0

>  <Rbt.Parameter_File>
/cluster/rxdock/data/scripts/dock.prm

>  <Rbt.Receptor>
rx_1.prm

>  <SCORE>
39.7357

>  <SCORE.INTER>
6.79839

>  <SCORE.INTER.CONST>
1

>  <SCORE.INTER.POLAR>
-2.98949

>  <SCORE.INTER.REPUL>
1.76982

>  <SCORE.INTER.ROT>
32

>  <SCORE.INTER.VDW>
-29.2864

>  <SCORE.INTER.norm>
0.135968

>  <SCORE.INTRA>
29.7685

>  <SCORE.INTRA.DIHEDRAL>
44.8011

>  <SCORE.INTRA.DIHEDRAL.0>
47.3121

>  <SCORE.INTRA.POLAR>
1.1847

>  <SCORE.INTRA.POLAR.0>
-1.47808

>  <SCORE.INTRA.REPUL>
0

>  <SCORE.INTRA.REPUL.0>
0

>  <SCORE.INTRA.VDW>
3.34001

>  <SCORE.INTRA.VDW.0>
-2.78316

>  <SCORE.INTRA.norm>
0.595371

>  <SCORE.RESTR>
3.16877

>  <SCORE.RESTR.CAVITY>
3.16877

>  <SCORE.RESTR.norm>
0.0633753

>  <SCORE.SYSTEM>
0

>  <SCORE.SYSTEM.CONST>
0

>  <SCORE.SYSTEM.DIHEDRAL>
0

>  <SCORE.SYSTEM.norm>
0

>  <SCORE.heavy>
50

>  <SCORE.norm>
0.794714

$$$$
