FB1.pdb
  RxDock  10072011003D
librxdock.so/0.1.0
 59 58  0  0  0  0  0  0  0  0999 V2000
   -7.0868   15.6158    2.1835 C   0  0  0  0  0  0
   -7.7575   15.4376    0.8235 C   0  0  0  0  0  0
   -9.2741   15.2241    0.9602 C   0  0  0  0  0  0
  -10.0012   15.0708   -0.3991 C   0  0  0  0  0  0
   -9.8879   13.6496   -1.0534 C   0  0  0  0  0  0
  -10.6254   13.6804   -2.4119 C   0  0  0  0  0  0
   -8.3917   13.1518   -1.2311 C   0  0  0  0  0  0
   -8.1742   11.5869   -1.4957 C   0  0  0  0  0  0
   -6.8655   10.7678   -1.1154 C   0  0  0  0  0  0
   -6.9797    9.1344   -1.3160 C   0  0  0  0  0  0
   -7.5217    8.8545   -2.7167 C   0  0  0  0  0  0
   -5.6384    8.3022   -1.0853 C   0  0  0  0  0  0
   -5.3482    6.8496   -1.7365 C   0  0  0  0  0  0
   -4.1237    5.9682   -1.3126 C   0  0  0  0  0  0
   -3.6405    4.8152   -2.3056 C   0  0  0  0  0  0
   -2.9633    3.4667   -1.8391 C   0  0  0  0  0  0
   -3.5415    2.1120   -2.3269 C   0  0  0  0  0  0
   -5.0775    1.8651   -2.0646 C   0  0  0  0  0  0
   -5.7349    0.7457   -2.8815 C   0  0  0  0  0  0
   -7.2825    0.6034   -2.8255 C   0  0  0  0  0  0
   -8.2019    1.7763   -3.2775 C   0  0  0  0  0  0
   -9.6968    1.4909   -3.3119 C   0  0  0  0  0  0
   -7.9160    2.9975   -2.5007 N   0  0  0  0  0  0
   -7.5849   -0.4835   -3.7372 O   0  0  0  0  0  0
   -5.2465    1.5721   -0.6734 O   0  0  0  0  0  0
   -6.5069    6.0619   -1.4142 O   0  0  0  0  0  0
   -9.2447   10.9028   -0.7898 O   0  0  0  0  0  0
  -10.2925   10.4636   -1.5345 C   0  0  0  0  0  0
  -10.4834   10.6930   -2.7136 O   0  0  0  0  0  0
  -11.1345    9.5548   -0.6821 C   0  0  0  0  0  0
  -11.6237   10.2383    0.6048 C   0  0  0  0  0  0
  -12.9094    9.6072    1.1544 C   0  0  0  0  0  0
  -12.6929    8.1562    1.5162 C   0  0  0  0  0  0
  -12.4589    7.7689    2.6559 O   0  0  0  0  0  0
  -12.7829    7.3248    0.4675 O   0  0  0  0  0  0
  -10.4858   10.0838    1.6233 C   0  0  0  0  0  0
   -9.5744    9.2815    1.4884 O   0  0  0  0  0  0
  -10.5993   10.8696    2.7029 O   0  0  0  0  0  0
   -7.6629   13.9872   -2.2164 O   0  0  0  0  0  0
   -7.6767   13.6007   -3.5463 C   0  0  0  0  0  0
   -8.4771   12.8137   -4.0345 O   0  0  0  0  0  0
   -6.5647   14.2739   -4.3615 C   0  0  0  0  0  0
   -7.0273   15.3988   -5.3387 C   0  0  0  0  0  0
   -7.0793   16.8427   -4.8069 C   0  0  0  0  0  0
   -5.9258   17.1779   -3.9061 C   0  0  0  0  0  0
   -5.9555   17.1897   -2.6831 O   0  0  0  0  0  0
   -4.8055   17.4576   -4.5894 O   0  0  0  0  0  0
   -6.2722   15.4346   -6.6732 C   0  0  0  0  0  0
   -6.8188   15.2690   -7.7458 O   0  0  0  0  0  0
   -4.9676   15.7703   -6.5918 O   0  0  0  0  0  0
   -7.1170    3.4767   -2.9136 H   0  0  0  0  0  0
   -7.6051    2.7245   -1.5657 H   0  0  0  0  0  0
   -8.5174   -0.7160   -3.5430 H   0  0  0  0  0  0
   -6.1833    1.3490   -0.5211 H   0  0  0  0  0  0
   -6.6174    6.0708   -0.4487 H   0  0  0  0  0  0
  -12.6297    6.3818    0.6692 H   0  0  0  0  0  0
   -9.8694   10.7676    3.3629 H   0  0  0  0  0  0
   -4.1202   17.6838   -3.9257 H   0  0  0  0  0  0
   -4.6676   16.0772   -5.7075 H   0  0  0  0  0  0
  1  2  1  0  0  0
  2  3  1  0  0  0
  3  4  1  0  0  0
  4  5  1  0  0  0
  5  6  1  0  0  0
  5  7  1  0  0  0
  7  8  1  0  0  0
  7 39  1  0  0  0
  8  9  1  0  0  0
  8 27  1  0  0  0
  9 10  1  0  0  0
 10 11  1  0  0  0
 10 12  1  0  0  0
 12 13  1  0  0  0
 13 14  1  0  0  0
 13 26  1  0  0  0
 14 15  1  0  0  0
 15 16  1  0  0  0
 16 17  1  0  0  0
 17 18  1  0  0  0
 18 19  1  0  0  0
 18 25  1  0  0  0
 19 20  1  0  0  0
 20 21  1  0  0  0
 20 24  1  0  0  0
 21 22  1  0  0  0
 21 23  1  0  0  0
 23 51  1  0  0  0
 23 52  1  0  0  0
 24 53  1  0  0  0
 25 54  1  0  0  0
 26 55  1  0  0  0
 27 28  1  0  0  0
 28 29  2  0  0  0
 28 30  1  0  0  0
 30 31  1  0  0  0
 31 32  1  0  0  0
 31 36  1  0  0  0
 32 33  1  0  0  0
 33 34  2  0  0  0
 33 35  1  0  0  0
 35 56  1  0  0  0
 36 37  2  0  0  0
 36 38  1  0  0  0
 38 57  1  0  0  0
 39 40  1  0  0  0
 40 41  2  0  0  0
 40 42  1  0  0  0
 42 43  1  0  0  0
 43 44  1  0  0  0
 43 48  1  0  0  0
 44 45  1  0  0  0
 45 46  2  0  0  0
 45 47  1  0  0  0
 47 58  1  0  0  0
 48 49  2  0  0  0
 48 50  1  0  0  0
 50 59  1  0  0  0
M  END
>  <AUTHOR>
    GENERATED BY OPEN BABEL 2.4.1

>  <CHROM.1>
178.68455924,79.56300466,-178.30084799,163.29874266,-153.09259232,-90.97135753
172.27368141,101.78461059,50.04121386,-155.86776065,-170.25891894,-160.06382433
-56.44241378,-149.66949191,127.31274041,-54.22190034,162.85703193,-170.76924889
-175.53378077,59.66491666,174.28188058,166.80705906,82.97570506,-7.26293047
56.85937441,155.12964632,61.53089268,-16.62171733,97.64409559,178.84397020
179.66887821,17.67583286,-106.60174469,89.96519740,39.59495991,118.31001829
-99.80122179,178.62820822,-8.12781237,-7.88887780,9.77612992,-1.81774349
1.64581750,0.72794787,-0.12603625

>  <COMPND>
    UNNAMED

>  <MASTER>
        0    0    0    0    0    0    0    0  109    0  109    0

>  <Name>
FB1.pdb

>  <RI>
0

>  <Rbt.Current_Directory>
/home/fc/tossine/FB1_39/p3/2_clust01

>  <Rbt.Executable>
rbdock/0.1.0

>  <Rbt.Library>
librxdock.so/0.1.0

>  <Rbt.Parameter_File>
/cluster/rxdock/data/scripts/dock.prm

>  <Rbt.Receptor>
rx_0.prm

>  <SCORE>
11.0131

>  <SCORE.INTER>
9.62571

>  <SCORE.INTER.CONST>
1

>  <SCORE.INTER.POLAR>
-0.848528

>  <SCORE.INTER.REPUL>
0.700776

>  <SCORE.INTER.ROT>
32

>  <SCORE.INTER.VDW>
-28.3932

>  <SCORE.INTER.norm>
0.192514

>  <SCORE.INTRA>
1.355

>  <SCORE.INTRA.DIHEDRAL>
2.91508

>  <SCORE.INTRA.DIHEDRAL.0>
47.3121

>  <SCORE.INTRA.POLAR>
0.647721

>  <SCORE.INTRA.POLAR.0>
-1.47808

>  <SCORE.INTRA.REPUL>
0

>  <SCORE.INTRA.REPUL.0>
0

>  <SCORE.INTRA.VDW>
-2.30479

>  <SCORE.INTRA.VDW.0>
-2.78316

>  <SCORE.INTRA.norm>
0.0270999

>  <SCORE.RESTR>
0.032389

>  <SCORE.RESTR.CAVITY>
0.032389

>  <SCORE.RESTR.norm>
0.00064778

>  <SCORE.SYSTEM>
0

>  <SCORE.SYSTEM.CONST>
0

>  <SCORE.SYSTEM.DIHEDRAL>
0

>  <SCORE.SYSTEM.norm>
0

>  <SCORE.heavy>
50

>  <SCORE.norm>
0.220262

$$$$
