FB1.pdb
  RxDock  10072014133D
librxdock.so/0.1.0
 59 58  0  0  0  0  0  0  0  0999 V2000
    1.1735   -3.9540    1.9020 C   0  0  0  0  0  0
    0.6226   -2.5416    2.0831 C   0  0  0  0  0  0
    1.6935   -1.4731    1.8075 C   0  0  0  0  0  0
    2.5000   -1.7274    0.5096 C   0  0  0  0  0  0
    3.8589   -0.9499    0.4121 C   0  0  0  0  0  0
    4.8688   -1.8321   -0.3577 C   0  0  0  0  0  0
    3.7236    0.4794   -0.2636 C   0  0  0  0  0  0
    2.2856    1.1818   -0.1940 C   0  0  0  0  0  0
    0.9427    0.5790   -0.7953 C   0  0  0  0  0  0
    0.2245    1.4978   -1.9621 C   0  0  0  0  0  0
    1.0005    1.3194   -3.2660 C   0  0  0  0  0  0
   -1.3253    1.2213   -2.2199 C   0  0  0  0  0  0
   -2.5078    1.6723   -1.2115 C   0  0  0  0  0  0
   -3.3480    2.9767   -1.4319 C   0  0  0  0  0  0
   -2.7960    4.3452   -0.8224 C   0  0  0  0  0  0
   -3.4537    5.7591   -1.0735 C   0  0  0  0  0  0
   -4.9262    6.0034   -0.6498 C   0  0  0  0  0  0
   -6.0088    5.9474   -1.7961 C   0  0  0  0  0  0
   -7.2675    6.7977   -1.5840 C   0  0  0  0  0  0
   -8.1605    7.1134   -2.8174 C   0  0  0  0  0  0
   -9.4035    6.2326   -3.1407 C   0  0  0  0  0  0
   -9.6022    4.9969   -2.2741 C   0  0  0  0  0  0
  -10.6306    7.0504   -3.1823 N   0  0  0  0  0  0
   -8.6955    8.4359   -2.5550 O   0  0  0  0  0  0
   -5.3822    6.3589   -3.0159 O   0  0  0  0  0  0
   -3.4626    0.5986   -1.2579 O   0  0  0  0  0  0
    1.9942    1.3723    1.2172 O   0  0  0  0  0  0
    2.6874    2.3449    1.8643 C   0  0  0  0  0  0
    3.5092    3.0930    1.3699 O   0  0  0  0  0  0
    2.1960    2.4154    3.2838 C   0  0  0  0  0  0
    3.0102    1.5241    4.2353 C   0  0  0  0  0  0
    3.7267    2.3290    5.3271 C   0  0  0  0  0  0
    4.8774    1.5458    5.9153 C   0  0  0  0  0  0
    5.3282    0.5222    5.4127 O   0  0  0  0  0  0
    5.3644    2.0792    7.0454 O   0  0  0  0  0  0
    2.0031    0.5562    4.8717 C   0  0  0  0  0  0
    1.1853    0.9013    5.7111 O   0  0  0  0  0  0
    2.1263   -0.7153    4.4667 O   0  0  0  0  0  0
    4.8067    1.3882    0.1846 O   0  0  0  0  0  0
    5.4929    1.0734    1.3457 C   0  0  0  0  0  0
    5.3637    0.0279    1.9691 O   0  0  0  0  0  0
    6.4510    2.1909    1.7788 C   0  0  0  0  0  0
    7.9295    1.7576    2.0254 C   0  0  0  0  0  0
    8.9503    1.9941    0.8973 C   0  0  0  0  0  0
   10.0959    1.0240    0.9300 C   0  0  0  0  0  0
   10.6273    0.5811    1.9390 O   0  0  0  0  0  0
   10.4909    0.6548   -0.2980 O   0  0  0  0  0  0
    8.5475    2.3058    3.3176 C   0  0  0  0  0  0
    9.1179    1.6016    4.1272 O   0  0  0  0  0  0
    8.5127    3.6481    3.4525 O   0  0  0  0  0  0
  -11.3474    6.5509   -3.7069 H   0  0  0  0  0  0
  -10.4430    7.8934   -3.7296 H   0  0  0  0  0  0
   -8.0000    9.0505   -2.8712 H   0  0  0  0  0  0
   -5.3252    5.5842   -3.6050 H   0  0  0  0  0  0
   -4.3025    0.9273   -0.8960 H   0  0  0  0  0  0
    6.3321    2.0089    7.1559 H   0  0  0  0  0  0
    1.6617   -1.3749    5.0393 H   0  0  0  0  0  0
   11.3269    0.1549   -0.1861 H   0  0  0  0  0  0
    9.3645    4.0663    3.7092 H   0  0  0  0  0  0
  1  2  1  0  0  0
  2  3  1  0  0  0
  3  4  1  0  0  0
  4  5  1  0  0  0
  5  6  1  0  0  0
  5  7  1  0  0  0
  7  8  1  0  0  0
  7 39  1  0  0  0
  8  9  1  0  0  0
  8 27  1  0  0  0
  9 10  1  0  0  0
 10 11  1  0  0  0
 10 12  1  0  0  0
 12 13  1  0  0  0
 13 14  1  0  0  0
 13 26  1  0  0  0
 14 15  1  0  0  0
 15 16  1  0  0  0
 16 17  1  0  0  0
 17 18  1  0  0  0
 18 19  1  0  0  0
 18 25  1  0  0  0
 19 20  1  0  0  0
 20 21  1  0  0  0
 20 24  1  0  0  0
 21 22  1  0  0  0
 21 23  1  0  0  0
 23 51  1  0  0  0
 23 52  1  0  0  0
 24 53  1  0  0  0
 25 54  1  0  0  0
 26 55  1  0  0  0
 27 28  1  0  0  0
 28 29  2  0  0  0
 28 30  1  0  0  0
 30 31  1  0  0  0
 31 32  1  0  0  0
 31 36  1  0  0  0
 32 33  1  0  0  0
 33 34  2  0  0  0
 33 35  1  0  0  0
 35 56  1  0  0  0
 36 37  2  0  0  0
 36 38  1  0  0  0
 38 57  1  0  0  0
 39 40  1  0  0  0
 40 41  2  0  0  0
 40 42  1  0  0  0
 42 43  1  0  0  0
 43 44  1  0  0  0
 43 48  1  0  0  0
 44 45  1  0  0  0
 45 46  2  0  0  0
 45 47  1  0  0  0
 47 58  1  0  0  0
 48 49  2  0  0  0
 48 50  1  0  0  0
 50 59  1  0  0  0
M  END
>  <AUTHOR>
    GENERATED BY OPEN BABEL 2.4.1

>  <CHROM.1>
46.47652591,-161.97525330,146.56658624,24.50208057,-59.58022654,-18.94355682
-119.10595753,72.97982892,76.76391597,73.21180846,98.11665570,-87.67568129
-162.89339411,174.01252727,59.40117969,-101.04121033,-151.66662189,162.55232991
111.48075950,95.43435045,-5.64292300,84.60724045,159.84424984,1.71364645
91.86346587,117.70401024,-159.43944898,-72.43437308,12.86747903,-143.40111096
164.15684550,7.49633410,-126.87821432,98.32144832,-152.72143101,129.44475614
-36.66890306,170.39306614,-131.19501600,1.40016929,2.09789941,0.87287569
0.42604317,-0.17758151,1.96617319

>  <COMPND>
    UNNAMED

>  <MASTER>
        0    0    0    0    0    0    0    0  109    0  109    0

>  <Name>
FB1.pdb

>  <RI>
0

>  <Rbt.Current_Directory>
/home/fc/tossine/FB1_39/p3/2_clust01

>  <Rbt.Executable>
rbdock/0.1.0

>  <Rbt.Library>
librxdock.so/0.1.0

>  <Rbt.Parameter_File>
/cluster/rxdock/data/scripts/dock.prm

>  <Rbt.Receptor>
rx_4.prm

>  <SCORE>
60.393

>  <SCORE.INTER>
16.7788

>  <SCORE.INTER.CONST>
1

>  <SCORE.INTER.POLAR>
-1.90912

>  <SCORE.INTER.REPUL>
0.732768

>  <SCORE.INTER.ROT>
32

>  <SCORE.INTER.VDW>
-17.7941

>  <SCORE.INTER.norm>
0.335575

>  <SCORE.INTRA>
39.2793

>  <SCORE.INTRA.DIHEDRAL>
60.2493

>  <SCORE.INTRA.DIHEDRAL.0>
47.3121

>  <SCORE.INTRA.POLAR>
1.47808

>  <SCORE.INTRA.POLAR.0>
-1.47808

>  <SCORE.INTRA.REPUL>
0.01433

>  <SCORE.INTRA.REPUL.0>
0

>  <SCORE.INTRA.VDW>
4.05758

>  <SCORE.INTRA.VDW.0>
-2.78316

>  <SCORE.INTRA.norm>
0.785587

>  <SCORE.RESTR>
4.33485

>  <SCORE.RESTR.CAVITY>
4.33485

>  <SCORE.RESTR.norm>
0.0866971

>  <SCORE.SYSTEM>
0

>  <SCORE.SYSTEM.CONST>
0

>  <SCORE.SYSTEM.DIHEDRAL>
0

>  <SCORE.SYSTEM.norm>
0

>  <SCORE.heavy>
50

>  <SCORE.norm>
1.20786

$$$$
