FB1.pdb
  RxDock  10072013313D
librxdock.so/0.1.0
 59 58  0  0  0  0  0  0  0  0999 V2000
  -10.1384   12.5125    2.3783 C   0  0  0  0  0  0
   -9.8291   11.1102    1.8593 C   0  0  0  0  0  0
   -8.3998   11.0122    1.3010 C   0  0  0  0  0  0
   -8.1278    9.6980    0.5273 C   0  0  0  0  0  0
   -6.7772    9.6669   -0.2698 C   0  0  0  0  0  0
   -5.6199    9.5020    0.7422 C   0  0  0  0  0  0
   -6.7240    8.5362   -1.3818 C   0  0  0  0  0  0
   -6.1834    7.0979   -0.9290 C   0  0  0  0  0  0
   -6.7586    6.2441    0.2828 C   0  0  0  0  0  0
   -8.3420    5.8043    0.1391 C   0  0  0  0  0  0
   -8.6596    4.7745    1.2221 C   0  0  0  0  0  0
   -9.4089    6.9888    0.1981 C   0  0  0  0  0  0
  -11.0119    6.7685    0.1754 C   0  0  0  0  0  0
  -11.7187    5.8494   -0.8790 C   0  0  0  0  0  0
  -11.1985    4.3491   -1.0456 C   0  0  0  0  0  0
  -11.1627    3.2861    0.1220 C   0  0  0  0  0  0
  -10.9095    1.7922   -0.2116 C   0  0  0  0  0  0
   -9.5495    1.4515   -0.9353 C   0  0  0  0  0  0
   -9.1244    2.3995   -2.0636 C   0  0  0  0  0  0
   -9.7552    2.2003   -3.4710 C   0  0  0  0  0  0
   -9.7812    0.7915   -4.1344 C   0  0  0  0  0  0
  -10.3150    0.7230   -5.5584 C   0  0  0  0  0  0
   -8.4619    0.1389   -4.0338 N   0  0  0  0  0  0
  -11.1498    2.5621   -3.3033 O   0  0  0  0  0  0
   -8.5156    1.4304    0.0548 O   0  0  0  0  0  0
  -11.3226    6.1836    1.4513 O   0  0  0  0  0  0
   -6.3288    6.2271   -2.0836 O   0  0  0  0  0  0
   -5.2601    5.4561   -2.4133 C   0  0  0  0  0  0
   -4.7546    5.3606   -3.5154 O   0  0  0  0  0  0
   -4.7347    4.8104   -1.1609 C   0  0  0  0  0  0
   -4.8851    3.2808   -1.1776 C   0  0  0  0  0  0
   -4.1593    2.6308   -2.3625 C   0  0  0  0  0  0
   -5.1340    1.9334   -3.2827 C   0  0  0  0  0  0
   -6.3335    2.1856   -3.3171 O   0  0  0  0  0  0
   -4.5607    1.0073   -4.0654 O   0  0  0  0  0  0
   -4.2835    2.7834    0.1440 C   0  0  0  0  0  0
   -3.7864    3.5300    0.9733 O   0  0  0  0  0  0
   -4.3030    1.4518    0.2939 O   0  0  0  0  0  0
   -8.0127    8.4400   -2.1097 O   0  0  0  0  0  0
   -8.3131    9.4121   -3.0493 C   0  0  0  0  0  0
   -9.1132    9.2718   -3.9651 O   0  0  0  0  0  0
   -7.5255   10.7088   -2.8202 C   0  0  0  0  0  0
   -8.3803   12.0087   -2.7019 C   0  0  0  0  0  0
   -9.6683   11.9533   -1.8601 C   0  0  0  0  0  0
  -10.5520   13.1505   -2.0606 C   0  0  0  0  0  0
  -10.6984   13.7616   -3.1103 O   0  0  0  0  0  0
  -11.2103   13.4954   -0.9434 O   0  0  0  0  0  0
   -7.5974   13.2480   -2.2508 C   0  0  0  0  0  0
   -7.6823   13.7109   -1.1304 O   0  0  0  0  0  0
   -6.7176   13.7365   -3.1500 O   0  0  0  0  0  0
   -8.3143   -0.1697   -3.0739 H   0  0  0  0  0  0
   -7.7369    0.8406   -4.1994 H   0  0  0  0  0  0
  -11.1469    3.5415   -3.2588 H   0  0  0  0  0  0
   -8.4870    2.3056    0.4835 H   0  0  0  0  0  0
  -11.1489    6.8494    2.1376 H   0  0  0  0  0  0
   -3.5847    0.9895   -4.0434 H   0  0  0  0  0  0
   -4.4895    0.9483   -0.5370 H   0  0  0  0  0  0
  -10.9949   12.8168   -0.2693 H   0  0  0  0  0  0
   -6.2412   14.5500   -2.8718 H   0  0  0  0  0  0
  1  2  1  0  0  0
  2  3  1  0  0  0
  3  4  1  0  0  0
  4  5  1  0  0  0
  5  6  1  0  0  0
  5  7  1  0  0  0
  7  8  1  0  0  0
  7 39  1  0  0  0
  8  9  1  0  0  0
  8 27  1  0  0  0
  9 10  1  0  0  0
 10 11  1  0  0  0
 10 12  1  0  0  0
 12 13  1  0  0  0
 13 14  1  0  0  0
 13 26  1  0  0  0
 14 15  1  0  0  0
 15 16  1  0  0  0
 16 17  1  0  0  0
 17 18  1  0  0  0
 18 19  1  0  0  0
 18 25  1  0  0  0
 19 20  1  0  0  0
 20 21  1  0  0  0
 20 24  1  0  0  0
 21 22  1  0  0  0
 21 23  1  0  0  0
 23 51  1  0  0  0
 23 52  1  0  0  0
 24 53  1  0  0  0
 25 54  1  0  0  0
 26 55  1  0  0  0
 27 28  1  0  0  0
 28 29  2  0  0  0
 28 30  1  0  0  0
 30 31  1  0  0  0
 31 32  1  0  0  0
 31 36  1  0  0  0
 32 33  1  0  0  0
 33 34  2  0  0  0
 33 35  1  0  0  0
 35 56  1  0  0  0
 36 37  2  0  0  0
 36 38  1  0  0  0
 38 57  1  0  0  0
 39 40  1  0  0  0
 40 41  2  0  0  0
 40 42  1  0  0  0
 42 43  1  0  0  0
 43 44  1  0  0  0
 43 48  1  0  0  0
 44 45  1  0  0  0
 45 46  2  0  0  0
 45 47  1  0  0  0
 47 58  1  0  0  0
 48 49  2  0  0  0
 48 50  1  0  0  0
 50 59  1  0  0  0
M  END
>  <AUTHOR>
    GENERATED BY OPEN BABEL 2.4.1

>  <CHROM.1>
-169.20636700,169.65939037,73.98639581,-88.87501130,54.41120134,75.61971187
61.52171357,132.65156276,168.89561726,-175.78890603,-48.90783676,52.96122260
66.95353089,58.54722040,167.80771332,59.53458085,-42.65688882,-81.48015968
-58.91910362,-49.62302217,-175.07367363,75.52883086,73.78693381,-129.47300612
114.90971738,58.67115405,-116.97190343,-1.05343434,20.47631340,-8.66238164
14.33851686,158.22993517,-125.76854349,42.94612922,-167.41034210,-105.15933104
34.68396517,-4.28912167,177.83500923,-8.06328498,6.51203617,-1.38166329,1.71801440
0.06268565,0.08868955

>  <COMPND>
    UNNAMED

>  <MASTER>
        0    0    0    0    0    0    0    0  109    0  109    0

>  <Name>
FB1.pdb

>  <RI>
0

>  <Rbt.Current_Directory>
/home/fc/tossine/FB1_39/p3/2_clust01

>  <Rbt.Executable>
rbdock/0.1.0

>  <Rbt.Library>
librxdock.so/0.1.0

>  <Rbt.Parameter_File>
/cluster/rxdock/data/scripts/dock.prm

>  <Rbt.Receptor>
rx_3.prm

>  <SCORE>
27.5824

>  <SCORE.INTER>
11.0483

>  <SCORE.INTER.CONST>
1

>  <SCORE.INTER.POLAR>
-1.49178

>  <SCORE.INTER.REPUL>
0.177532

>  <SCORE.INTER.ROT>
32

>  <SCORE.INTER.VDW>
-22.1673

>  <SCORE.INTER.norm>
0.220966

>  <SCORE.INTRA>
15.3586

>  <SCORE.INTRA.DIHEDRAL>
9.57605

>  <SCORE.INTRA.DIHEDRAL.0>
47.3121

>  <SCORE.INTRA.POLAR>
0.552782

>  <SCORE.INTRA.POLAR.0>
-1.47808

>  <SCORE.INTRA.REPUL>
0

>  <SCORE.INTRA.REPUL.0>
0

>  <SCORE.INTRA.VDW>
8.69108

>  <SCORE.INTRA.VDW.0>
-2.78316

>  <SCORE.INTRA.norm>
0.307171

>  <SCORE.RESTR>
1.17552

>  <SCORE.RESTR.CAVITY>
1.17552

>  <SCORE.RESTR.norm>
0.0235104

>  <SCORE.SYSTEM>
0

>  <SCORE.SYSTEM.CONST>
0

>  <SCORE.SYSTEM.DIHEDRAL>
0

>  <SCORE.SYSTEM.norm>
0

>  <SCORE.heavy>
50

>  <SCORE.norm>
0.551648

$$$$
