FB1.pdb
  RxDock  10072011483D
librxdock.so/0.1.0
 59 58  0  0  0  0  0  0  0  0999 V2000
   10.0086    0.4707   -1.3454 C   0  0  0  0  0  0
    9.2513   -0.6747   -2.0133 C   0  0  0  0  0  0
    7.8985   -0.9371   -1.3311 C   0  0  0  0  0  0
    6.8768    0.2113   -1.5236 C   0  0  0  0  0  0
    7.0044    1.3895   -0.4959 C   0  0  0  0  0  0
    6.0087    2.4997   -0.9040 C   0  0  0  0  0  0
    6.7725    0.9445    1.0095 C   0  0  0  0  0  0
    6.0307   -0.4554    1.2464 C   0  0  0  0  0  0
    5.4617   -0.9650    2.6409 C   0  0  0  0  0  0
    4.2352   -0.0582    3.2692 C   0  0  0  0  0  0
    3.3954   -0.9466    4.1857 C   0  0  0  0  0  0
    4.6673    1.2621    4.0533 C   0  0  0  0  0  0
    4.1262    1.6618    5.5251 C   0  0  0  0  0  0
    4.6506    2.9188    6.3003 C   0  0  0  0  0  0
    6.0131    2.7877    7.1222 C   0  0  0  0  0  0
    7.4505    2.8012    6.4678 C   0  0  0  0  0  0
    8.6476    2.1855    7.2394 C   0  0  0  0  0  0
    8.9677    2.8040    8.6551 C   0  0  0  0  0  0
    7.8670    2.6783    9.7159 C   0  0  0  0  0  0
    7.4643    3.9503   10.5149 C   0  0  0  0  0  0
    8.5542    4.8666   11.1458 C   0  0  0  0  0  0
    9.4885    5.5751   10.1750 C   0  0  0  0  0  0
    7.9518    5.8246   12.0922 N   0  0  0  0  0  0
    6.7809    4.7898    9.5494 O   0  0  0  0  0  0
   10.1536    2.1758    9.1537 O   0  0  0  0  0  0
    2.7172    1.8887    5.3517 O   0  0  0  0  0  0
    4.8758   -0.4578    0.3640 O   0  0  0  0  0  0
    4.5196   -1.6493   -0.1826 C   0  0  0  0  0  0
    4.6457   -2.7437    0.3329 O   0  0  0  0  0  0
    3.8444   -1.3857   -1.5002 C   0  0  0  0  0  0
    2.6661   -0.4069   -1.3742 C   0  0  0  0  0  0
    3.1061    0.9874   -0.9098 C   0  0  0  0  0  0
    2.0958    1.5902    0.0384 C   0  0  0  0  0  0
    1.8367    1.1212    1.1414 O   0  0  0  0  0  0
    1.5055    2.6950   -0.4413 O   0  0  0  0  0  0
    2.0378   -0.3209   -2.7721 C   0  0  0  0  0  0
    0.8514   -0.5210   -2.9835 O   0  0  0  0  0  0
    2.9095   -0.0556   -3.7548 O   0  0  0  0  0  0
    8.0246    1.0487    1.7976 O   0  0  0  0  0  0
    8.5216    2.3099    2.0816 C   0  0  0  0  0  0
    7.9671    3.1313    2.8001 O   0  0  0  0  0  0
    9.8651    2.5772    1.3904 C   0  0  0  0  0  0
   11.1084    2.6473    2.3306 C   0  0  0  0  0  0
   11.3506    3.9507    3.1135 C   0  0  0  0  0  0
   10.4415    4.1003    4.2991 C   0  0  0  0  0  0
   10.5699    3.5292    5.3733 O   0  0  0  0  0  0
    9.4427    4.9675    4.0737 O   0  0  0  0  0  0
   11.2167    1.4907    3.3319 C   0  0  0  0  0  0
   10.2468    0.9697    3.8462 O   0  0  0  0  0  0
   12.4621    1.0100    3.5295 O   0  0  0  0  0  0
    7.9189    5.4026   13.0192 H   0  0  0  0  0  0
    6.9731    5.9681   11.8332 H   0  0  0  0  0  0
    6.2920    5.4431   10.0930 H   0  0  0  0  0  0
    9.9887    1.2166    9.2111 H   0  0  0  0  0  0
    2.2997    1.8713    6.2291 H   0  0  0  0  0  0
    0.9506    3.1818    0.1979 H   0  0  0  0  0  0
    2.5136   -0.0419   -4.6614 H   0  0  0  0  0  0
    9.5779    5.3237    3.1703 H   0  0  0  0  0  0
   12.5175    0.2070    4.0936 H   0  0  0  0  0  0
  1  2  1  0  0  0
  2  3  1  0  0  0
  3  4  1  0  0  0
  4  5  1  0  0  0
  5  6  1  0  0  0
  5  7  1  0  0  0
  7  8  1  0  0  0
  7 39  1  0  0  0
  8  9  1  0  0  0
  8 27  1  0  0  0
  9 10  1  0  0  0
 10 11  1  0  0  0
 10 12  1  0  0  0
 12 13  1  0  0  0
 13 14  1  0  0  0
 13 26  1  0  0  0
 14 15  1  0  0  0
 15 16  1  0  0  0
 16 17  1  0  0  0
 17 18  1  0  0  0
 18 19  1  0  0  0
 18 25  1  0  0  0
 19 20  1  0  0  0
 20 21  1  0  0  0
 20 24  1  0  0  0
 21 22  1  0  0  0
 21 23  1  0  0  0
 23 51  1  0  0  0
 23 52  1  0  0  0
 24 53  1  0  0  0
 25 54  1  0  0  0
 26 55  1  0  0  0
 27 28  1  0  0  0
 28 29  2  0  0  0
 28 30  1  0  0  0
 30 31  1  0  0  0
 31 32  1  0  0  0
 31 36  1  0  0  0
 32 33  1  0  0  0
 33 34  2  0  0  0
 33 35  1  0  0  0
 35 56  1  0  0  0
 36 37  2  0  0  0
 36 38  1  0  0  0
 38 57  1  0  0  0
 39 40  1  0  0  0
 40 41  2  0  0  0
 40 42  1  0  0  0
 42 43  1  0  0  0
 43 44  1  0  0  0
 43 48  1  0  0  0
 44 45  1  0  0  0
 45 46  2  0  0  0
 45 47  1  0  0  0
 47 58  1  0  0  0
 48 49  2  0  0  0
 48 50  1  0  0  0
 50 59  1  0  0  0
M  END
>  <AUTHOR>
    GENERATED BY OPEN BABEL 2.4.1

>  <CHROM.1>
67.77188172,-84.67318110,174.87891834,-17.88115115,-168.13648915,69.66491851
64.07577413,145.09057587,154.40482762,-130.59853155,175.74797198,-82.91026027
163.43267828,77.26317775,-158.59539053,-58.71035523,62.09332983,-131.11639147
-59.15568344,-47.62074093,64.50482356,162.97608395,89.05756491,32.36274943
-54.21883950,63.37701259,-142.10326740,126.22121603,64.42394502,-171.14515707
177.26536279,66.01217560,-110.02223000,-79.28975048,76.78825208,-34.90783504
77.63907630,-2.00734143,-173.53860916,6.68136005,1.62860487,3.11035109,-2.00040080
0.11331779,1.23915352

>  <COMPND>
    UNNAMED

>  <MASTER>
        0    0    0    0    0    0    0    0  109    0  109    0

>  <Name>
FB1.pdb

>  <RI>
0

>  <Rbt.Current_Directory>
/home/fc/tossine/FB1_39/p3/2_clust01

>  <Rbt.Executable>
rbdock/0.1.0

>  <Rbt.Library>
librxdock.so/0.1.0

>  <Rbt.Parameter_File>
/cluster/rxdock/data/scripts/dock.prm

>  <Rbt.Receptor>
rx_1.prm

>  <SCORE>
15.4541

>  <SCORE.INTER>
-4.12565

>  <SCORE.INTER.CONST>
1

>  <SCORE.INTER.POLAR>
-3.37153

>  <SCORE.INTER.REPUL>
0.626489

>  <SCORE.INTER.ROT>
32

>  <SCORE.INTER.VDW>
-33.1949

>  <SCORE.INTER.norm>
-0.0825131

>  <SCORE.INTRA>
19.126

>  <SCORE.INTRA.DIHEDRAL>
33.5841

>  <SCORE.INTRA.DIHEDRAL.0>
47.3121

>  <SCORE.INTRA.POLAR>
1.47808

>  <SCORE.INTRA.POLAR.0>
-1.47808

>  <SCORE.INTRA.REPUL>
0.01792

>  <SCORE.INTRA.REPUL.0>
0

>  <SCORE.INTRA.VDW>
-2.78107

>  <SCORE.INTRA.VDW.0>
-2.78316

>  <SCORE.INTRA.norm>
0.382521

>  <SCORE.RESTR>
0.453708

>  <SCORE.RESTR.CAVITY>
0.453708

>  <SCORE.RESTR.norm>
0.00907416

>  <SCORE.SYSTEM>
0

>  <SCORE.SYSTEM.CONST>
0

>  <SCORE.SYSTEM.DIHEDRAL>
0

>  <SCORE.SYSTEM.norm>
0

>  <SCORE.heavy>
50

>  <SCORE.norm>
0.309082

$$$$
