FB1.pdb
  RxDock  10072011533D
librxdock.so/0.1.0
 59 58  0  0  0  0  0  0  0  0999 V2000
   13.1325    5.5897    1.5089 C   0  0  0  0  0  0
   13.4820    6.0354    2.9268 C   0  0  0  0  0  0
   12.2299    6.4450    3.7198 C   0  0  0  0  0  0
   11.3652    5.2423    4.1732 C   0  0  0  0  0  0
   10.1216    5.6160    5.0531 C   0  0  0  0  0  0
    9.2676    6.6437    4.2752 C   0  0  0  0  0  0
    9.2493    4.3617    5.4817 C   0  0  0  0  0  0
    8.9621    3.2588    4.3561 C   0  0  0  0  0  0
    9.7508    1.8874    4.1963 C   0  0  0  0  0  0
   11.3415    2.0391    3.7863 C   0  0  0  0  0  0
   11.9820    0.6522    3.8067 C   0  0  0  0  0  0
   11.6429    2.7470    2.3889 C   0  0  0  0  0  0
   11.2995    2.0948    0.9483 C   0  0  0  0  0  0
    9.8414    1.7002    0.5308 C   0  0  0  0  0  0
    8.6491    2.6894    0.9169 C   0  0  0  0  0  0
    7.1530    2.2342    1.1380 C   0  0  0  0  0  0
    6.4019    1.4964   -0.0017 C   0  0  0  0  0  0
    5.3054    0.4505    0.4374 C   0  0  0  0  0  0
    4.7149   -0.4230   -0.6765 C   0  0  0  0  0  0
    3.7023   -1.5355   -0.2826 C   0  0  0  0  0  0
    3.1020   -2.4792   -1.3664 C   0  0  0  0  0  0
    1.8103   -3.1965   -1.0000 C   0  0  0  0  0  0
    2.9680   -1.7782   -2.6575 N   0  0  0  0  0  0
    4.4435   -2.4091    0.6070 O   0  0  0  0  0  0
    5.8836   -0.4058    1.4286 O   0  0  0  0  0  0
   11.7104    3.0825   -0.0120 O   0  0  0  0  0  0
    7.5749    2.8585    4.5239 O   0  0  0  0  0  0
    6.6261    3.7106    4.0558 C   0  0  0  0  0  0
    6.8215    4.7083    3.3881 O   0  0  0  0  0  0
    5.2734    3.1603    4.4147 C   0  0  0  0  0  0
    4.9028    1.9188    3.5878 C   0  0  0  0  0  0
    5.0606    0.6149    4.3804 C   0  0  0  0  0  0
    4.1654    0.6053    5.5977 C   0  0  0  0  0  0
    4.3958    1.2513    6.6142 O   0  0  0  0  0  0
    3.0866   -0.1799    5.4615 O   0  0  0  0  0  0
    3.4365    2.1089    3.1757 C   0  0  0  0  0  0
    2.7627    1.2192    2.6787 O   0  0  0  0  0  0
    2.9665    3.3502    3.3604 O   0  0  0  0  0  0
    9.7629    3.7551    6.7339 O   0  0  0  0  0  0
   10.1282    4.5958    7.7721 C   0  0  0  0  0  0
   10.1516    5.8178    7.7032 O   0  0  0  0  0  0
   10.5075    3.8238    9.0427 C   0  0  0  0  0  0
    9.3432    3.0550    9.7411 C   0  0  0  0  0  0
    9.6392    2.3551   11.0801 C   0  0  0  0  0  0
    8.4860    1.5337   11.5801 C   0  0  0  0  0  0
    7.5455    1.1386   10.9048 O   0  0  0  0  0  0
    8.5913    1.2425   12.8856 O   0  0  0  0  0  0
    8.0617    3.8755    9.9325 C   0  0  0  0  0  0
    8.0602    4.9995   10.3944 O   0  0  0  0  0  0
    6.9342    3.3094    9.4534 O   0  0  0  0  0  0
    2.3763   -0.9579   -2.5325 H   0  0  0  0  0  0
    2.4516   -2.3794   -3.3036 H   0  0  0  0  0  0
    3.7674   -3.0147    0.9779 H   0  0  0  0  0  0
    6.6588   -0.8467    1.0348 H   0  0  0  0  0  0
   12.6818    3.1097   -0.0185 H   0  0  0  0  0  0
    2.4817   -0.1935    6.2279 H   0  0  0  0  0  0
    2.0015    3.4560    3.1696 H   0  0  0  0  0  0
    7.7521    0.8072   13.1454 H   0  0  0  0  0  0
    6.9646    2.3319    9.3547 H   0  0  0  0  0  0
  1  2  1  0  0  0
  2  3  1  0  0  0
  3  4  1  0  0  0
  4  5  1  0  0  0
  5  6  1  0  0  0
  5  7  1  0  0  0
  7  8  1  0  0  0
  7 39  1  0  0  0
  8  9  1  0  0  0
  8 27  1  0  0  0
  9 10  1  0  0  0
 10 11  1  0  0  0
 10 12  1  0  0  0
 12 13  1  0  0  0
 13 14  1  0  0  0
 13 26  1  0  0  0
 14 15  1  0  0  0
 15 16  1  0  0  0
 16 17  1  0  0  0
 17 18  1  0  0  0
 18 19  1  0  0  0
 18 25  1  0  0  0
 19 20  1  0  0  0
 20 21  1  0  0  0
 20 24  1  0  0  0
 21 22  1  0  0  0
 21 23  1  0  0  0
 23 51  1  0  0  0
 23 52  1  0  0  0
 24 53  1  0  0  0
 25 54  1  0  0  0
 26 55  1  0  0  0
 27 28  1  0  0  0
 28 29  2  0  0  0
 28 30  1  0  0  0
 30 31  1  0  0  0
 31 32  1  0  0  0
 31 36  1  0  0  0
 32 33  1  0  0  0
 33 34  2  0  0  0
 33 35  1  0  0  0
 35 56  1  0  0  0
 36 37  2  0  0  0
 36 38  1  0  0  0
 38 57  1  0  0  0
 39 40  1  0  0  0
 40 41  2  0  0  0
 40 42  1  0  0  0
 42 43  1  0  0  0
 43 44  1  0  0  0
 43 48  1  0  0  0
 44 45  1  0  0  0
 45 46  2  0  0  0
 45 47  1  0  0  0
 47 58  1  0  0  0
 48 49  2  0  0  0
 48 50  1  0  0  0
 50 59  1  0  0  0
M  END
>  <AUTHOR>
    GENERATED BY OPEN BABEL 2.4.1

>  <CHROM.1>
74.32002658,176.75907464,55.51627350,-43.10271324,99.56794674,43.57847318
-65.63772303,77.06633681,174.55792621,-68.89474103,59.48515227,41.00660474
71.14971583,-153.22412738,-57.35550047,149.12769671,-171.24314635,175.88661155
-59.29429296,-178.23143338,-159.94079716,170.32443271,-58.12589993,8.15603770
-71.74482162,103.18295451,60.52015694,-168.72898204,-75.11013985,-179.00084330
-174.96513507,-5.58178809,-66.98841516,-175.23347390,-174.01635499,-48.02423512
18.54488671,173.12730016,22.63889841,7.62718501,2.30786614,4.28597925,-0.92226443
-0.53752196,-1.70468812

>  <COMPND>
    UNNAMED

>  <MASTER>
        0    0    0    0    0    0    0    0  109    0  109    0

>  <Name>
FB1.pdb

>  <RI>
0

>  <Rbt.Current_Directory>
/home/fc/tossine/FB1_39/p3/2_clust01

>  <Rbt.Executable>
rbdock/0.1.0

>  <Rbt.Library>
librxdock.so/0.1.0

>  <Rbt.Parameter_File>
/cluster/rxdock/data/scripts/dock.prm

>  <Rbt.Receptor>
rx_1.prm

>  <SCORE>
-1.40604

>  <SCORE.INTER>
-0.702838

>  <SCORE.INTER.CONST>
1

>  <SCORE.INTER.POLAR>
-3.09009

>  <SCORE.INTER.REPUL>
0.66803

>  <SCORE.INTER.ROT>
32

>  <SCORE.INTER.VDW>
-30.9367

>  <SCORE.INTER.norm>
-0.0140568

>  <SCORE.INTRA>
-1.65295

>  <SCORE.INTRA.DIHEDRAL>
-5.07492

>  <SCORE.INTRA.DIHEDRAL.0>
47.3121

>  <SCORE.INTRA.POLAR>
1.14462

>  <SCORE.INTRA.POLAR.0>
-1.47808

>  <SCORE.INTRA.REPUL>
0.0131763

>  <SCORE.INTRA.REPUL.0>
0

>  <SCORE.INTRA.VDW>
-3.07308

>  <SCORE.INTRA.VDW.0>
-2.78316

>  <SCORE.INTRA.norm>
-0.0330591

>  <SCORE.RESTR>
0.949747

>  <SCORE.RESTR.CAVITY>
0.949747

>  <SCORE.RESTR.norm>
0.0189949

>  <SCORE.SYSTEM>
0

>  <SCORE.SYSTEM.CONST>
0

>  <SCORE.SYSTEM.DIHEDRAL>
0

>  <SCORE.SYSTEM.norm>
0

>  <SCORE.heavy>
50

>  <SCORE.norm>
-0.0281209

$$$$
