FB1.pdb
  RxDock  10072011003D
librxdock.so/0.1.0
 59 58  0  0  0  0  0  0  0  0999 V2000
   -6.3986    2.9599   -2.4787 C   0  0  0  0  0  0
   -7.8617    3.3959   -2.5048 C   0  0  0  0  0  0
   -8.1955    4.1933   -3.7764 C   0  0  0  0  0  0
   -9.1295    5.4023   -3.5199 C   0  0  0  0  0  0
   -8.5152    6.5344   -2.6247 C   0  0  0  0  0  0
   -7.1625    6.9603   -3.2407 C   0  0  0  0  0  0
   -9.4736    7.7856   -2.4399 C   0  0  0  0  0  0
   -8.7973    9.1509   -1.9453 C   0  0  0  0  0  0
   -8.4650   10.3969   -2.8756 C   0  0  0  0  0  0
   -7.5784   11.5888   -2.1581 C   0  0  0  0  0  0
   -6.1400   11.4948   -2.6643 C   0  0  0  0  0  0
   -8.1168   13.0781   -2.3501 C   0  0  0  0  0  0
   -8.0580   13.8913   -3.7479 C   0  0  0  0  0  0
   -6.7648   13.9513   -4.6312 C   0  0  0  0  0  0
   -6.4080   15.3269   -5.3590 C   0  0  0  0  0  0
   -5.1669   15.5310   -6.3142 C   0  0  0  0  0  0
   -4.7717   16.9640   -6.7588 C   0  0  0  0  0  0
   -3.4381   17.1022   -7.5905 C   0  0  0  0  0  0
   -3.2378   18.4264   -8.3381 C   0  0  0  0  0  0
   -2.1575   18.4864   -9.4551 C   0  0  0  0  0  0
   -2.0293   17.3340  -10.4948 C   0  0  0  0  0  0
   -0.8872   17.4477  -11.4948 C   0  0  0  0  0  0
   -2.0141   16.0202   -9.8239 N   0  0  0  0  0  0
   -2.5005   19.6599  -10.2356 O   0  0  0  0  0  0
   -2.3373   16.9148   -6.6945 O   0  0  0  0  0  0
   -9.0519   13.2690   -4.5796 O   0  0  0  0  0  0
   -9.6748    9.6910   -0.9203 O   0  0  0  0  0  0
   -9.1010   10.4635    0.0386 C   0  0  0  0  0  0
   -7.9372   10.4275    0.3903 O   0  0  0  0  0  0
  -10.1238   11.4504    0.5298 C   0  0  0  0  0  0
   -9.7347   12.0833    1.8754 C   0  0  0  0  0  0
  -10.4189   13.4363    2.1092 C   0  0  0  0  0  0
   -9.4030   14.5501    2.2131 C   0  0  0  0  0  0
   -9.2405   15.2281    3.2219 O   0  0  0  0  0  0
   -8.6890   14.7283    1.0918 O   0  0  0  0  0  0
  -10.1694   11.0815    2.9541 C   0  0  0  0  0  0
   -9.4297   10.7028    3.8495 O   0  0  0  0  0  0
  -11.4170   10.6154    2.8054 O   0  0  0  0  0  0
  -10.3238    7.9903   -3.6379 O   0  0  0  0  0  0
  -11.6868    8.1573   -3.4580 C   0  0  0  0  0  0
  -12.5505    7.5751   -4.1010 O   0  0  0  0  0  0
  -12.0099    9.1661   -2.3480 C   0  0  0  0  0  0
  -12.4815    8.5538   -0.9925 C   0  0  0  0  0  0
  -11.4084    8.0066   -0.0337 C   0  0  0  0  0  0
  -11.9752    7.1167    1.0346 C   0  0  0  0  0  0
  -12.1500    5.9096    0.9392 O   0  0  0  0  0  0
  -12.2687    7.7875    2.1590 O   0  0  0  0  0  0
  -13.4040    9.4615   -0.1694 C   0  0  0  0  0  0
  -13.0564    9.9890    0.8686 O   0  0  0  0  0  0
  -14.6034    9.7278   -0.7278 O   0  0  0  0  0  0
   -1.1208   15.8981   -9.3488 H   0  0  0  0  0  0
   -2.0349   15.2886  -10.5379 H   0  0  0  0  0  0
   -2.4201   20.4071   -9.6058 H   0  0  0  0  0  0
   -2.3031   17.6793   -6.0905 H   0  0  0  0  0  0
   -8.6792   12.4405   -4.9247 H   0  0  0  0  0  0
   -8.9760   14.1949    0.3259 H   0  0  0  0  0  0
  -11.8903   10.9579    2.0070 H   0  0  0  0  0  0
  -12.0471    8.7278    1.9915 H   0  0  0  0  0  0
  -14.7555    9.3210   -1.6095 H   0  0  0  0  0  0
  1  2  1  0  0  0
  2  3  1  0  0  0
  3  4  1  0  0  0
  4  5  1  0  0  0
  5  6  1  0  0  0
  5  7  1  0  0  0
  7  8  1  0  0  0
  7 39  1  0  0  0
  8  9  1  0  0  0
  8 27  1  0  0  0
  9 10  1  0  0  0
 10 11  1  0  0  0
 10 12  1  0  0  0
 12 13  1  0  0  0
 13 14  1  0  0  0
 13 26  1  0  0  0
 14 15  1  0  0  0
 15 16  1  0  0  0
 16 17  1  0  0  0
 17 18  1  0  0  0
 18 19  1  0  0  0
 18 25  1  0  0  0
 19 20  1  0  0  0
 20 21  1  0  0  0
 20 24  1  0  0  0
 21 22  1  0  0  0
 21 23  1  0  0  0
 23 51  1  0  0  0
 23 52  1  0  0  0
 24 53  1  0  0  0
 25 54  1  0  0  0
 26 55  1  0  0  0
 27 28  1  0  0  0
 28 29  2  0  0  0
 28 30  1  0  0  0
 30 31  1  0  0  0
 31 32  1  0  0  0
 31 36  1  0  0  0
 32 33  1  0  0  0
 33 34  2  0  0  0
 33 35  1  0  0  0
 35 56  1  0  0  0
 36 37  2  0  0  0
 36 38  1  0  0  0
 38 57  1  0  0  0
 39 40  1  0  0  0
 40 41  2  0  0  0
 40 42  1  0  0  0
 42 43  1  0  0  0
 43 44  1  0  0  0
 43 48  1  0  0  0
 44 45  1  0  0  0
 45 46  2  0  0  0
 45 47  1  0  0  0
 47 58  1  0  0  0
 48 49  2  0  0  0
 48 50  1  0  0  0
 50 59  1  0  0  0
M  END
>  <AUTHOR>
    GENERATED BY OPEN BABEL 2.4.1

>  <CHROM.1>
-139.73706236,65.04879323,53.59100098,-161.66239917,102.90750920,130.50862605
-171.72818402,151.80872487,104.00004474,-71.13543151,-47.12184076,-141.36875607
-78.24351913,-178.06377695,-168.94005691,173.96692798,164.36162377,-164.10770751
-68.95522533,44.20533234,-176.42176841,62.05511509,-72.38129931,-24.57418113
162.96968764,156.95211697,-117.32875580,129.94867001,-117.14014655,6.53646724
1.50919869,-132.89544493,-103.73558725,80.31224681,-164.02122331,-109.85610513
88.05397827,1.02266420,-0.74621795,-8.35171722,11.37365912,-2.57001047,-2.79787194
0.96130810,0.39652016

>  <COMPND>
    UNNAMED

>  <MASTER>
        0    0    0    0    0    0    0    0  109    0  109    0

>  <Name>
FB1.pdb

>  <RI>
0

>  <Rbt.Current_Directory>
/home/fc/tossine/FB1_39/p3/2_clust01

>  <Rbt.Executable>
rbdock/0.1.0

>  <Rbt.Library>
librxdock.so/0.1.0

>  <Rbt.Parameter_File>
/cluster/rxdock/data/scripts/dock.prm

>  <Rbt.Receptor>
rx_0.prm

>  <SCORE>
21.5645

>  <SCORE.INTER>
3.80961

>  <SCORE.INTER.CONST>
1

>  <SCORE.INTER.POLAR>
-1.60022

>  <SCORE.INTER.REPUL>
0.0314012

>  <SCORE.INTER.ROT>
32

>  <SCORE.INTER.VDW>
-28.3066

>  <SCORE.INTER.norm>
0.0761921

>  <SCORE.INTRA>
17.2189

>  <SCORE.INTRA.DIHEDRAL>
25.6694

>  <SCORE.INTRA.DIHEDRAL.0>
47.3121

>  <SCORE.INTRA.POLAR>
-0.239322

>  <SCORE.INTRA.POLAR.0>
-1.47808

>  <SCORE.INTRA.REPUL>
0

>  <SCORE.INTRA.REPUL.0>
0

>  <SCORE.INTRA.VDW>
5.19788

>  <SCORE.INTRA.VDW.0>
-2.78316

>  <SCORE.INTRA.norm>
0.344378

>  <SCORE.RESTR>
0.535944

>  <SCORE.RESTR.CAVITY>
0.535944

>  <SCORE.RESTR.norm>
0.0107189

>  <SCORE.SYSTEM>
0

>  <SCORE.SYSTEM.CONST>
0

>  <SCORE.SYSTEM.DIHEDRAL>
0

>  <SCORE.SYSTEM.norm>
0

>  <SCORE.heavy>
50

>  <SCORE.norm>
0.431289

$$$$
