FB1.pdb
  RxDock  10072014133D
librxdock.so/0.1.0
 59 58  0  0  0  0  0  0  0  0999 V2000
   13.9509    4.8585    1.6173 C   0  0  0  0  0  0
   13.3512    4.0871    2.7906 C   0  0  0  0  0  0
   11.8210    3.9831    2.6812 C   0  0  0  0  0  0
   11.3383    2.6856    1.9862 C   0  0  0  0  0  0
   10.9325    1.5250    2.9603 C   0  0  0  0  0  0
   12.2246    0.8907    3.5247 C   0  0  0  0  0  0
    9.9695    1.9899    4.1327 C   0  0  0  0  0  0
    8.5370    2.5682    3.7089 C   0  0  0  0  0  0
    7.5262    1.8629    2.7044 C   0  0  0  0  0  0
    8.0692    1.7165    1.1536 C   0  0  0  0  0  0
    8.6154    0.3025    0.9624 C   0  0  0  0  0  0
    7.0114    2.0412    0.0046 C   0  0  0  0  0  0
    5.6284    1.2293   -0.2118 C   0  0  0  0  0  0
    4.2283    1.9329   -0.1864 C   0  0  0  0  0  0
    3.1885    1.5096    0.9489 C   0  0  0  0  0  0
    3.0738    0.0539    1.5509 C   0  0  0  0  0  0
    1.8399   -0.3219    2.4132 C   0  0  0  0  0  0
    1.3021   -1.7981    2.2699 C   0  0  0  0  0  0
    1.3779   -2.4157    0.8680 C   0  0  0  0  0  0
    0.7810   -3.8357    0.6545 C   0  0  0  0  0  0
    1.0902   -4.6370   -0.6446 C   0  0  0  0  0  0
   -0.1059   -5.0224   -1.5038 C   0  0  0  0  0  0
    2.1203   -3.9544   -1.4505 N   0  0  0  0  0  0
    1.3381   -4.6341    1.7297 O   0  0  0  0  0  0
    2.0418   -2.6273    3.1727 O   0  0  0  0  0  0
    5.7373    0.6576   -1.5263 O   0  0  0  0  0  0
    7.7777    2.7148    4.9396 O   0  0  0  0  0  0
    6.5709    3.3319    4.8501 C   0  0  0  0  0  0
    5.8771    3.4143    3.8544 O   0  0  0  0  0  0
    6.1804    3.8146    6.2197 C   0  0  0  0  0  0
    5.8559    2.6608    7.1820 C   0  0  0  0  0  0
    6.1273    3.0227    8.6478 C   0  0  0  0  0  0
    5.7331    4.4523    8.9382 C   0  0  0  0  0  0
    6.5229    5.3098    9.3185 O   0  0  0  0  0  0
    4.4299    4.6984    8.7383 O   0  0  0  0  0  0
    4.3651    2.3531    6.9842 C   0  0  0  0  0  0
    3.4978    3.2132    7.0078 O   0  0  0  0  0  0
    4.0845    1.0516    6.8319 O   0  0  0  0  0  0
    9.8580    0.9455    5.1799 O   0  0  0  0  0  0
    9.9661    1.3282    6.5065 C   0  0  0  0  0  0
    9.5445    0.6794    7.4550 O   0  0  0  0  0  0
   10.6833    2.6749    6.6691 C   0  0  0  0  0  0
   10.6793    3.2749    8.1094 C   0  0  0  0  0  0
    9.6651    4.3893    8.4259 C   0  0  0  0  0  0
   10.2078    5.7659    8.1712 C   0  0  0  0  0  0
   10.4282    6.2538    7.0712 O   0  0  0  0  0  0
   10.4218    6.4510    9.3048 O   0  0  0  0  0  0
   10.5758    2.2359    9.2327 C   0  0  0  0  0  0
    9.7161    2.2746   10.0908 O   0  0  0  0  0  0
   11.4417    1.2042    9.1493 O   0  0  0  0  0  0
    2.9178   -3.7337   -0.8557 H   0  0  0  0  0  0
    1.7543   -3.0471   -1.7478 H   0  0  0  0  0  0
    0.7546   -5.4204    1.7809 H   0  0  0  0  0  0
    1.5146   -3.4277    3.3519 H   0  0  0  0  0  0
    5.7433    1.3849   -2.1709 H   0  0  0  0  0  0
    3.8905    3.9197    8.5011 H   0  0  0  0  0  0
    4.8718    0.4810    6.6494 H   0  0  0  0  0  0
   11.3937    6.5339    9.4042 H   0  0  0  0  0  0
   11.3080    0.4896    9.8109 H   0  0  0  0  0  0
  1  2  1  0  0  0
  2  3  1  0  0  0
  3  4  1  0  0  0
  4  5  1  0  0  0
  5  6  1  0  0  0
  5  7  1  0  0  0
  7  8  1  0  0  0
  7 39  1  0  0  0
  8  9  1  0  0  0
  8 27  1  0  0  0
  9 10  1  0  0  0
 10 11  1  0  0  0
 10 12  1  0  0  0
 12 13  1  0  0  0
 13 14  1  0  0  0
 13 26  1  0  0  0
 14 15  1  0  0  0
 15 16  1  0  0  0
 16 17  1  0  0  0
 17 18  1  0  0  0
 18 19  1  0  0  0
 18 25  1  0  0  0
 19 20  1  0  0  0
 20 21  1  0  0  0
 20 24  1  0  0  0
 21 22  1  0  0  0
 21 23  1  0  0  0
 23 51  1  0  0  0
 23 52  1  0  0  0
 24 53  1  0  0  0
 25 54  1  0  0  0
 26 55  1  0  0  0
 27 28  1  0  0  0
 28 29  2  0  0  0
 28 30  1  0  0  0
 30 31  1  0  0  0
 31 32  1  0  0  0
 31 36  1  0  0  0
 32 33  1  0  0  0
 33 34  2  0  0  0
 33 35  1  0  0  0
 35 56  1  0  0  0
 36 37  2  0  0  0
 36 38  1  0  0  0
 38 57  1  0  0  0
 39 40  1  0  0  0
 40 41  2  0  0  0
 40 42  1  0  0  0
 42 43  1  0  0  0
 43 44  1  0  0  0
 43 48  1  0  0  0
 44 45  1  0  0  0
 45 46  2  0  0  0
 45 47  1  0  0  0
 47 58  1  0  0  0
 48 49  2  0  0  0
 48 50  1  0  0  0
 50 59  1  0  0  0
M  END
>  <AUTHOR>
    GENERATED BY OPEN BABEL 2.4.1

>  <CHROM.1>
93.57785012,96.57485422,-75.67595802,62.23905164,49.69192752,133.97590549
-64.25097235,172.94693407,98.55407530,-61.17525936,122.11086353,-117.24692903
-66.14509467,-33.10592821,-166.69495512,144.31156037,-36.10621524,-176.30585294
158.26254138,-166.87731144,-119.86711277,161.87786276,50.65156876,23.88521345
-68.82876555,151.98070341,38.59090715,-50.11459856,-118.91848890,4.53180666
-13.93056789,159.04882458,172.05508453,-100.51806672,-90.81554747,-125.18613781
71.05952625,110.42494335,-173.44801991,6.91733932,1.61965689,4.32310929,-0.77960050
-0.37690561,-1.95743977

>  <COMPND>
    UNNAMED

>  <MASTER>
        0    0    0    0    0    0    0    0  109    0  109    0

>  <Name>
FB1.pdb

>  <RI>
0

>  <Rbt.Current_Directory>
/home/fc/tossine/FB1_39/p3/2_clust01

>  <Rbt.Executable>
rbdock/0.1.0

>  <Rbt.Library>
librxdock.so/0.1.0

>  <Rbt.Parameter_File>
/cluster/rxdock/data/scripts/dock.prm

>  <Rbt.Receptor>
rx_4.prm

>  <SCORE>
61.5278

>  <SCORE.INTER>
22.602

>  <SCORE.INTER.CONST>
1

>  <SCORE.INTER.POLAR>
-3.02992

>  <SCORE.INTER.REPUL>
0.702119

>  <SCORE.INTER.ROT>
32

>  <SCORE.INTER.VDW>
-8.00683

>  <SCORE.INTER.norm>
0.452041

>  <SCORE.INTRA>
36.9616

>  <SCORE.INTRA.DIHEDRAL>
53.1988

>  <SCORE.INTRA.DIHEDRAL.0>
47.3121

>  <SCORE.INTRA.POLAR>
1.2213

>  <SCORE.INTRA.POLAR.0>
-1.47808

>  <SCORE.INTRA.REPUL>
0

>  <SCORE.INTRA.REPUL.0>
0

>  <SCORE.INTRA.VDW>
6.20976

>  <SCORE.INTRA.VDW.0>
-2.78316

>  <SCORE.INTRA.norm>
0.739232

>  <SCORE.RESTR>
1.96422

>  <SCORE.RESTR.CAVITY>
1.96422

>  <SCORE.RESTR.norm>
0.0392844

>  <SCORE.SYSTEM>
0

>  <SCORE.SYSTEM.CONST>
0

>  <SCORE.SYSTEM.DIHEDRAL>
0

>  <SCORE.SYSTEM.norm>
0

>  <SCORE.heavy>
50

>  <SCORE.norm>
1.23056

$$$$
