FB1.pdb
  RxDock  09132009343D
librxdock.so/0.1.0
 59 58  0  0  0  0  0  0  0  0999 V2000
    8.8736    2.2662   -3.5689 C   0  0  0  0  0  0
    8.7479    1.8830   -2.0962 C   0  0  0  0  0  0
    7.6009    2.6401   -1.4068 C   0  0  0  0  0  0
    7.3791    2.2166    0.0667 C   0  0  0  0  0  0
    6.8862    0.7405    0.2637 C   0  0  0  0  0  0
    8.1201   -0.1909    0.2380 C   0  0  0  0  0  0
    6.0414    0.5267    1.5897 C   0  0  0  0  0  0
    5.0590   -0.7380    1.6283 C   0  0  0  0  0  0
    4.1613   -1.1618    2.8704 C   0  0  0  0  0  0
    2.8373   -0.2133    3.1326 C   0  0  0  0  0  0
    1.8817   -0.9603    4.0615 C   0  0  0  0  0  0
    3.1209    1.2439    3.7165 C   0  0  0  0  0  0
    4.4047    1.6234    4.6257 C   0  0  0  0  0  0
    4.3953    2.8237    5.6333 C   0  0  0  0  0  0
    5.7024    3.0849    6.5123 C   0  0  0  0  0  0
    7.1734    2.7662    6.0337 C   0  0  0  0  0  0
    8.3603    3.5758    6.6196 C   0  0  0  0  0  0
    8.4657    3.6352    8.1926 C   0  0  0  0  0  0
    7.2420    4.1863    8.9352 C   0  0  0  0  0  0
    7.4698    4.9291   10.2823 C   0  0  0  0  0  0
    7.8483    4.1370   11.5686 C   0  0  0  0  0  0
    9.1967    3.4306   11.5571 C   0  0  0  0  0  0
    7.7069    4.9841   12.7681 N   0  0  0  0  0  0
    8.6002    5.8033   10.0334 O   0  0  0  0  0  0
    8.7275    2.3104    8.6681 O   0  0  0  0  0  0
    4.6435    0.4579    5.4327 O   0  0  0  0  0  0
    4.1082   -0.5472    0.5457 O   0  0  0  0  0  0
    3.7908   -1.6400   -0.1963 C   0  0  0  0  0  0
    3.1091   -2.5807    0.1637 O   0  0  0  0  0  0
    4.3403   -1.4496   -1.5831 C   0  0  0  0  0  0
    5.7279   -2.0863   -1.7609 C   0  0  0  0  0  0
    5.6716   -3.4181   -2.5202 C   0  0  0  0  0  0
    7.0323   -4.0729   -2.5740 C   0  0  0  0  0  0
    7.5280   -4.6851   -1.6343 O   0  0  0  0  0  0
    7.6514   -3.9226   -3.7543 O   0  0  0  0  0  0
    6.5618   -1.0670   -2.5492 C   0  0  0  0  0  0
    7.7802   -1.0075   -2.4820 O   0  0  0  0  0  0
    5.8386   -0.2105   -3.2836 O   0  0  0  0  0  0
    6.9067    0.5934    2.7925 O   0  0  0  0  0  0
    7.6225    1.7558    3.0259 C   0  0  0  0  0  0
    7.1853    2.8874    2.8625 O   0  0  0  0  0  0
    9.0474    1.4746    3.5206 C   0  0  0  0  0  0
   10.1238    2.5313    3.1216 C   0  0  0  0  0  0
   10.1776    3.8464    3.9204 C   0  0  0  0  0  0
   11.1261    4.8512    3.3330 C   0  0  0  0  0  0
   11.1539    5.2072    2.1630 O   0  0  0  0  0  0
   11.9653    5.3605    4.2477 O   0  0  0  0  0  0
   11.5558    1.9867    3.0489 C   0  0  0  0  0  0
   12.5018    2.6621    2.6946 O   0  0  0  0  0  0
   11.7213    0.7288    3.5088 O   0  0  0  0  0  0
    8.1771    5.8736   12.6061 H   0  0  0  0  0  0
    8.2222    4.5500   13.5372 H   0  0  0  0  0  0
    8.3237    6.3529    9.2700 H   0  0  0  0  0  0
    7.9689    1.7462    8.4297 H   0  0  0  0  0  0
    5.5288    0.5400    5.8250 H   0  0  0  0  0  0
    7.1705   -3.3834   -4.4112 H   0  0  0  0  0  0
    6.3754    0.4201   -3.8250 H   0  0  0  0  0  0
   11.8393    4.8373    5.0673 H   0  0  0  0  0  0
   12.6084    0.3368    3.3490 H   0  0  0  0  0  0
  1  2  1  0  0  0
  2  3  1  0  0  0
  3  4  1  0  0  0
  4  5  1  0  0  0
  5  6  1  0  0  0
  5  7  1  0  0  0
  7  8  1  0  0  0
  7 39  1  0  0  0
  8  9  1  0  0  0
  8 27  1  0  0  0
  9 10  1  0  0  0
 10 11  1  0  0  0
 10 12  1  0  0  0
 12 13  1  0  0  0
 13 14  1  0  0  0
 13 26  1  0  0  0
 14 15  1  0  0  0
 15 16  1  0  0  0
 16 17  1  0  0  0
 17 18  1  0  0  0
 18 19  1  0  0  0
 18 25  1  0  0  0
 19 20  1  0  0  0
 20 21  1  0  0  0
 20 24  1  0  0  0
 21 22  1  0  0  0
 21 23  1  0  0  0
 23 51  1  0  0  0
 23 52  1  0  0  0
 24 53  1  0  0  0
 25 54  1  0  0  0
 26 55  1  0  0  0
 27 28  1  0  0  0
 28 29  2  0  0  0
 28 30  1  0  0  0
 30 31  1  0  0  0
 31 32  1  0  0  0
 31 36  1  0  0  0
 32 33  1  0  0  0
 33 34  2  0  0  0
 33 35  1  0  0  0
 35 56  1  0  0  0
 36 37  2  0  0  0
 36 38  1  0  0  0
 38 57  1  0  0  0
 39 40  1  0  0  0
 40 41  2  0  0  0
 40 42  1  0  0  0
 42 43  1  0  0  0
 43 44  1  0  0  0
 43 48  1  0  0  0
 44 45  1  0  0  0
 45 46  2  0  0  0
 45 47  1  0  0  0
 47 58  1  0  0  0
 48 49  2  0  0  0
 48 50  1  0  0  0
 50 59  1  0  0  0
M  END
>  <AUTHOR>
    GENERATED BY OPEN BABEL 2.4.1

>  <CHROM.1>
176.35664421,-65.81044301,83.47808694,157.99543237,177.92848267,59.26023121
74.17438191,138.25948828,163.58579823,-27.40542065,-154.96174566,178.27120107
165.51823443,31.30623235,153.21937707,53.04669172,-56.88753196,-149.68631404
-62.75335995,-73.31499797,65.11559488,56.85727849,-48.93939940,71.83613730
94.18262492,102.58806253,-175.15016825,153.95477738,78.09650365,2.50349348
-177.30339255,41.01589993,149.34898709,78.33537846,-172.44879843,176.57727617
50.58599218,8.65346223,171.93912503,7.26053151,1.27354159,2.90039845,-1.77723312
0.48498994,1.17314347

>  <COMPND>
    UNNAMED

>  <MASTER>
        0    0    0    0    0    0    0    0  109    0  109    0

>  <Name>
FB1.pdb

>  <RI>
0

>  <Rbt.Current_Directory>
/home/fc/tossine/FB1_39/p3/2_clust01

>  <Rbt.Executable>
rbdock/0.1.0

>  <Rbt.Library>
librxdock.so/0.1.0

>  <Rbt.Parameter_File>
/cluster/rxdock/data/scripts/dock.prm

>  <Rbt.Receptor>
rx_4.prm

>  <SCORE>
23.8483

>  <SCORE.INTER>
0.623216

>  <SCORE.INTER.CONST>
1

>  <SCORE.INTER.POLAR>
-3.46078

>  <SCORE.INTER.REPUL>
0.281895

>  <SCORE.INTER.ROT>
32

>  <SCORE.INTER.VDW>
-26.4196

>  <SCORE.INTER.norm>
0.0124643

>  <SCORE.INTRA>
22.1999

>  <SCORE.INTRA.DIHEDRAL>
35.331

>  <SCORE.INTRA.DIHEDRAL.0>
47.3121

>  <SCORE.INTRA.POLAR>
1.47808

>  <SCORE.INTRA.POLAR.0>
-1.47808

>  <SCORE.INTRA.REPUL>
0

>  <SCORE.INTRA.REPUL.0>
0

>  <SCORE.INTRA.VDW>
-0.491027

>  <SCORE.INTRA.VDW.0>
-2.78316

>  <SCORE.INTRA.norm>
0.443999

>  <SCORE.RESTR>
1.02515

>  <SCORE.RESTR.CAVITY>
1.02515

>  <SCORE.RESTR.norm>
0.020503

>  <SCORE.SYSTEM>
0

>  <SCORE.SYSTEM.CONST>
0

>  <SCORE.SYSTEM.DIHEDRAL>
0

>  <SCORE.SYSTEM.norm>
0

>  <SCORE.heavy>
50

>  <SCORE.norm>
0.476966

$$$$
