FB1.pdb
  RxDock  10072011413D
librxdock.so/0.1.0
 59 58  0  0  0  0  0  0  0  0999 V2000
    5.4539   -1.5029    2.5782 C   0  0  0  0  0  0
    4.5911   -0.9968    3.7318 C   0  0  0  0  0  0
    3.4108   -1.9402    4.0166 C   0  0  0  0  0  0
    2.4962   -2.1733    2.7882 C   0  0  0  0  0  0
    1.6515   -0.9276    2.3464 C   0  0  0  0  0  0
    0.7858   -0.4778    3.5460 C   0  0  0  0  0  0
    2.5328    0.2738    1.8006 C   0  0  0  0  0  0
    2.2630    0.7456    0.2937 C   0  0  0  0  0  0
    1.4395    2.0392   -0.1265 C   0  0  0  0  0  0
   -0.1747    1.9801    0.2084 C   0  0  0  0  0  0
   -0.3525    1.8748    1.7221 C   0  0  0  0  0  0
   -1.0535    3.1884   -0.3507 C   0  0  0  0  0  0
   -2.4214    3.0013   -1.1947 C   0  0  0  0  0  0
   -3.7221    2.3965   -0.5634 C   0  0  0  0  0  0
   -5.1072    2.6162   -1.3265 C   0  0  0  0  0  0
   -5.3218    2.3594   -2.8701 C   0  0  0  0  0  0
   -5.7560    3.5331   -3.7873 C   0  0  0  0  0  0
   -7.1276    4.2306   -3.4391 C   0  0  0  0  0  0
   -7.2412    4.8446   -2.0382 C   0  0  0  0  0  0
   -8.6107    5.4387   -1.6024 C   0  0  0  0  0  0
   -8.8276    5.9402   -0.1440 C   0  0  0  0  0  0
   -8.8998    4.8705    0.9366 C   0  0  0  0  0  0
   -7.8402    6.9786    0.2070 N   0  0  0  0  0  0
   -8.7821    6.6151   -2.4334 O   0  0  0  0  0  0
   -7.3579    5.2601   -4.4069 O   0  0  0  0  0  0
   -2.7865    4.3296   -1.6058 O   0  0  0  0  0  0
    3.5701    0.9388   -0.3118 O   0  0  0  0  0  0
    4.3697   -0.1545   -0.4153 C   0  0  0  0  0  0
    4.0570   -1.3014   -0.1578 O   0  0  0  0  0  0
    5.6867    0.2728   -1.0021 C   0  0  0  0  0  0
    6.5821   -0.9199   -1.3738 C   0  0  0  0  0  0
    7.5227   -0.6075   -2.5447 C   0  0  0  0  0  0
    6.7480   -0.3939   -3.8243 C   0  0  0  0  0  0
    5.5258   -0.3050   -3.8705 O   0  0  0  0  0  0
    7.5270   -0.3083   -4.9127 O   0  0  0  0  0  0
    7.3993   -1.2423   -0.1151 C   0  0  0  0  0  0
    7.2986   -2.2967    0.4936 O   0  0  0  0  0  0
    8.2008   -0.2489    0.2933 O   0  0  0  0  0  0
    2.5280    1.4150    2.7480 O   0  0  0  0  0  0
    3.5124    2.3809    2.6213 C   0  0  0  0  0  0
    3.3491    3.5743    2.8391 O   0  0  0  0  0  0
    4.8554    1.7904    2.1720 C   0  0  0  0  0  0
    6.1148    2.6571    2.4838 C   0  0  0  0  0  0
    6.2260    3.2952    3.8805 C   0  0  0  0  0  0
    7.6190    3.7492    4.2088 C   0  0  0  0  0  0
    8.3606    4.3733    3.4624 O   0  0  0  0  0  0
    7.9887    3.4120    5.4538 O   0  0  0  0  0  0
    7.4526    1.9654    2.1941 C   0  0  0  0  0  0
    7.7103    0.8405    2.5746 O   0  0  0  0  0  0
    8.2958    2.6478    1.3912 O   0  0  0  0  0  0
   -6.9164    6.5531    0.2712 H   0  0  0  0  0  0
   -8.0415    7.3149    1.1514 H   0  0  0  0  0  0
   -8.7464    6.2753   -3.3524 H   0  0  0  0  0  0
   -6.5166    5.7290   -4.5582 H   0  0  0  0  0  0
   -2.1056    4.6522   -2.2197 H   0  0  0  0  0  0
    7.0516   -0.1853   -5.7567 H   0  0  0  0  0  0
    8.6519   -0.4152    1.1579 H   0  0  0  0  0  0
    8.9256    3.6837    5.5524 H   0  0  0  0  0  0
    9.1245    2.1752    1.1543 H   0  0  0  0  0  0
  1  2  1  0  0  0
  2  3  1  0  0  0
  3  4  1  0  0  0
  4  5  1  0  0  0
  5  6  1  0  0  0
  5  7  1  0  0  0
  7  8  1  0  0  0
  7 39  1  0  0  0
  8  9  1  0  0  0
  8 27  1  0  0  0
  9 10  1  0  0  0
 10 11  1  0  0  0
 10 12  1  0  0  0
 12 13  1  0  0  0
 13 14  1  0  0  0
 13 26  1  0  0  0
 14 15  1  0  0  0
 15 16  1  0  0  0
 16 17  1  0  0  0
 17 18  1  0  0  0
 18 19  1  0  0  0
 18 25  1  0  0  0
 19 20  1  0  0  0
 20 21  1  0  0  0
 20 24  1  0  0  0
 21 22  1  0  0  0
 21 23  1  0  0  0
 23 51  1  0  0  0
 23 52  1  0  0  0
 24 53  1  0  0  0
 25 54  1  0  0  0
 26 55  1  0  0  0
 27 28  1  0  0  0
 28 29  2  0  0  0
 28 30  1  0  0  0
 30 31  1  0  0  0
 31 32  1  0  0  0
 31 36  1  0  0  0
 32 33  1  0  0  0
 33 34  2  0  0  0
 33 35  1  0  0  0
 35 56  1  0  0  0
 36 37  2  0  0  0
 36 38  1  0  0  0
 38 57  1  0  0  0
 39 40  1  0  0  0
 40 41  2  0  0  0
 40 42  1  0  0  0
 42 43  1  0  0  0
 43 44  1  0  0  0
 43 48  1  0  0  0
 44 45  1  0  0  0
 45 46  2  0  0  0
 45 47  1  0  0  0
 47 58  1  0  0  0
 48 49  2  0  0  0
 48 50  1  0  0  0
 50 59  1  0  0  0
M  END
>  <AUTHOR>
    GENERATED BY OPEN BABEL 2.4.1

>  <CHROM.1>
-57.08338529,-69.27720145,-57.63552674,120.00163622,102.55543011,162.55532972
-67.72676148,62.76670782,62.81959570,130.05310113,66.65092234,163.47547040
65.52386190,48.20485117,-119.30781465,-59.94537495,58.87681812,-174.98985813
-42.32843600,173.61871764,-70.77223681,58.37410207,-68.84825207,6.84085747
-170.68581770,150.94715727,-66.60318213,115.84719439,9.12837399,179.01124348
173.54629559,145.13347237,-158.98357384,44.62883022,162.96718835,-48.45279348
45.26894078,175.66541843,-175.76263692,1.64565166,1.83611982,0.31720358,0.09113242
-0.34745650,1.22242853

>  <COMPND>
    UNNAMED

>  <MASTER>
        0    0    0    0    0    0    0    0  109    0  109    0

>  <Name>
FB1.pdb

>  <RI>
0

>  <Rbt.Current_Directory>
/home/fc/tossine/FB1_39/p3/2_clust01

>  <Rbt.Executable>
rbdock/0.1.0

>  <Rbt.Library>
librxdock.so/0.1.0

>  <Rbt.Parameter_File>
/cluster/rxdock/data/scripts/dock.prm

>  <Rbt.Receptor>
rx_1.prm

>  <SCORE>
10.2972

>  <SCORE.INTER>
0.624618

>  <SCORE.INTER.CONST>
1

>  <SCORE.INTER.POLAR>
-3.1305

>  <SCORE.INTER.REPUL>
0.632641

>  <SCORE.INTER.ROT>
32

>  <SCORE.INTER.VDW>
-29.2949

>  <SCORE.INTER.norm>
0.0124924

>  <SCORE.INTRA>
7.93476

>  <SCORE.INTRA.DIHEDRAL>
5.73281

>  <SCORE.INTRA.DIHEDRAL.0>
47.3121

>  <SCORE.INTRA.POLAR>
0.838589

>  <SCORE.INTRA.POLAR.0>
-1.47808

>  <SCORE.INTRA.REPUL>
0

>  <SCORE.INTRA.REPUL.0>
0

>  <SCORE.INTRA.VDW>
2.21715

>  <SCORE.INTRA.VDW.0>
-2.78316

>  <SCORE.INTRA.norm>
0.158695

>  <SCORE.RESTR>
1.73783

>  <SCORE.RESTR.CAVITY>
1.73783

>  <SCORE.RESTR.norm>
0.0347566

>  <SCORE.SYSTEM>
0

>  <SCORE.SYSTEM.CONST>
0

>  <SCORE.SYSTEM.DIHEDRAL>
0

>  <SCORE.SYSTEM.norm>
0

>  <SCORE.heavy>
50

>  <SCORE.norm>
0.205944

$$$$
