FB1.pdb
  RxDock  10072014103D
librxdock.so/0.1.0
 59 58  0  0  0  0  0  0  0  0999 V2000
  -11.9849    9.2987    1.9923 C   0  0  0  0  0  0
  -11.3570    9.9594    0.7673 C   0  0  0  0  0  0
  -11.5949    9.1353   -0.5088 C   0  0  0  0  0  0
  -10.7616    9.6203   -1.7214 C   0  0  0  0  0  0
  -10.3292    8.4914   -2.7209 C   0  0  0  0  0  0
   -9.1625    9.0268   -3.5828 C   0  0  0  0  0  0
   -9.9295    7.1320   -2.0064 C   0  0  0  0  0  0
   -9.2210    7.2460   -0.5742 C   0  0  0  0  0  0
   -9.0508    6.0504    0.4601 C   0  0  0  0  0  0
   -7.5189    5.4531    0.5928 C   0  0  0  0  0  0
   -7.5717    4.1573    1.4005 C   0  0  0  0  0  0
   -6.7425    5.1981   -0.7772 C   0  0  0  0  0  0
   -5.3127    4.4477   -0.8842 C   0  0  0  0  0  0
   -4.2145    4.5701    0.2272 C   0  0  0  0  0  0
   -3.3831    3.2641    0.6173 C   0  0  0  0  0  0
   -1.8958    2.9887    0.1627 C   0  0  0  0  0  0
   -1.1398    1.7564    0.7260 C   0  0  0  0  0  0
    0.4339    1.7835    0.6168 C   0  0  0  0  0  0
    1.1142    0.4520    0.2749 C   0  0  0  0  0  0
    2.2033    0.4442   -0.8351 C   0  0  0  0  0  0
    3.2276   -0.7251   -0.9306 C   0  0  0  0  0  0
    4.1759   -0.8930    0.2483 C   0  0  0  0  0  0
    2.5469   -1.9957   -1.2448 N   0  0  0  0  0  0
    1.4596    0.3943   -2.0794 O   0  0  0  0  0  0
    0.7909    2.7460   -0.3812 O   0  0  0  0  0  0
   -5.6336    3.0476   -0.9420 O   0  0  0  0  0  0
   -7.8633    7.6988   -0.8274 O   0  0  0  0  0  0
   -7.2157    8.3103    0.1982 C   0  0  0  0  0  0
   -6.2197    7.9029    0.7651 O   0  0  0  0  0  0
   -7.8769    9.6362    0.4555 C   0  0  0  0  0  0
   -8.1531   10.4191   -0.8381 C   0  0  0  0  0  0
   -8.7190   11.8194   -0.5692 C   0  0  0  0  0  0
   -9.3765   12.3882   -1.8051 C   0  0  0  0  0  0
  -10.5625   12.6944   -1.8625 O   0  0  0  0  0  0
   -8.5358   12.5296   -2.8406 O   0  0  0  0  0  0
   -6.8037   10.5279   -1.5615 C   0  0  0  0  0  0
   -6.1630   11.5661   -1.6255 O   0  0  0  0  0  0
   -6.4060    9.3982   -2.1629 O   0  0  0  0  0  0
  -11.0685    6.1822   -1.9874 O   0  0  0  0  0  0
  -10.7995    4.8338   -1.8210 C   0  0  0  0  0  0
  -11.6361    3.9868   -1.5362 O   0  0  0  0  0  0
   -9.3164    4.5036   -2.0350 C   0  0  0  0  0  0
   -9.0212    3.2784   -2.9548 C   0  0  0  0  0  0
   -8.4636    3.5497   -4.3641 C   0  0  0  0  0  0
   -7.2488    4.4321   -4.3544 C   0  0  0  0  0  0
   -7.2543    5.6529   -4.2752 O   0  0  0  0  0  0
   -6.1059    3.7328   -4.4246 O   0  0  0  0  0  0
   -8.1354    2.2010   -2.3170 C   0  0  0  0  0  0
   -7.1648    1.7286   -2.8751 O   0  0  0  0  0  0
   -8.4394    1.8814   -1.0416 O   0  0  0  0  0  0
    1.7219   -2.0878   -0.6537 H   0  0  0  0  0  0
    3.1560   -2.7694   -0.9694 H   0  0  0  0  0  0
    1.1137   -0.5220   -2.1235 H   0  0  0  0  0  0
    1.2178    3.5013    0.0636 H   0  0  0  0  0  0
   -6.1047    2.8131   -0.1250 H   0  0  0  0  0  0
   -8.9350   12.8916   -3.6549 H   0  0  0  0  0  0
   -7.0184    8.6310   -2.0404 H   0  0  0  0  0  0
   -6.3510    2.7858   -4.3577 H   0  0  0  0  0  0
   -7.8091    1.2695   -0.6006 H   0  0  0  0  0  0
  1  2  1  0  0  0
  2  3  1  0  0  0
  3  4  1  0  0  0
  4  5  1  0  0  0
  5  6  1  0  0  0
  5  7  1  0  0  0
  7  8  1  0  0  0
  7 39  1  0  0  0
  8  9  1  0  0  0
  8 27  1  0  0  0
  9 10  1  0  0  0
 10 11  1  0  0  0
 10 12  1  0  0  0
 12 13  1  0  0  0
 13 14  1  0  0  0
 13 26  1  0  0  0
 14 15  1  0  0  0
 15 16  1  0  0  0
 16 17  1  0  0  0
 17 18  1  0  0  0
 18 19  1  0  0  0
 18 25  1  0  0  0
 19 20  1  0  0  0
 20 21  1  0  0  0
 20 24  1  0  0  0
 21 22  1  0  0  0
 21 23  1  0  0  0
 23 51  1  0  0  0
 23 52  1  0  0  0
 24 53  1  0  0  0
 25 54  1  0  0  0
 26 55  1  0  0  0
 27 28  1  0  0  0
 28 29  2  0  0  0
 28 30  1  0  0  0
 30 31  1  0  0  0
 31 32  1  0  0  0
 31 36  1  0  0  0
 32 33  1  0  0  0
 33 34  2  0  0  0
 33 35  1  0  0  0
 35 56  1  0  0  0
 36 37  2  0  0  0
 36 38  1  0  0  0
 38 57  1  0  0  0
 39 40  1  0  0  0
 40 41  2  0  0  0
 40 42  1  0  0  0
 42 43  1  0  0  0
 43 44  1  0  0  0
 43 48  1  0  0  0
 44 45  1  0  0  0
 45 46  2  0  0  0
 45 47  1  0  0  0
 47 58  1  0  0  0
 48 49  2  0  0  0
 48 50  1  0  0  0
 50 59  1  0  0  0
M  END
>  <AUTHOR>
    GENERATED BY OPEN BABEL 2.4.1

>  <CHROM.1>
-169.27050438,147.81666811,-161.88008566,-33.74684922,164.70963206,158.90556717
106.70494849,157.60748712,-169.09535385,-171.97866544,-33.74976265,139.96038865
-60.57705837,103.93811609,173.58955755,-160.98892638,-141.38765719,132.95090397
110.88807731,160.81956192,-63.67044220,-72.98004208,-45.67009992,115.63520298
-45.55383660,-175.19118636,-162.15205247,-106.78865503,119.02432668,179.73267600
-1.81317582,165.48106371,-132.72318790,107.24856972,52.40883264,-131.03729224
-81.31538091,-6.63840210,-173.18472092,-6.34360396,5.64692257,-1.17204735
2.45746803,-0.18874896,0.14971489

>  <COMPND>
    UNNAMED

>  <MASTER>
        0    0    0    0    0    0    0    0  109    0  109    0

>  <Name>
FB1.pdb

>  <RI>
0

>  <Rbt.Current_Directory>
/home/fc/tossine/FB1_39/p3/2_clust01

>  <Rbt.Executable>
rbdock/0.1.0

>  <Rbt.Library>
librxdock.so/0.1.0

>  <Rbt.Parameter_File>
/cluster/rxdock/data/scripts/dock.prm

>  <Rbt.Receptor>
rx_4.prm

>  <SCORE>
52.7899

>  <SCORE.INTER>
21.1577

>  <SCORE.INTER.CONST>
1

>  <SCORE.INTER.POLAR>
-1.20782

>  <SCORE.INTER.REPUL>
1.28095

>  <SCORE.INTER.ROT>
32

>  <SCORE.INTER.VDW>
-18.5405

>  <SCORE.INTER.norm>
0.423154

>  <SCORE.INTRA>
28.127

>  <SCORE.INTRA.DIHEDRAL>
40.9831

>  <SCORE.INTRA.DIHEDRAL.0>
47.3121

>  <SCORE.INTRA.POLAR>
-0.145904

>  <SCORE.INTRA.POLAR.0>
-1.47808

>  <SCORE.INTRA.REPUL>
0.0540464

>  <SCORE.INTRA.REPUL.0>
0

>  <SCORE.INTRA.VDW>
7.86136

>  <SCORE.INTRA.VDW.0>
-2.78316

>  <SCORE.INTRA.norm>
0.562541

>  <SCORE.RESTR>
3.50514

>  <SCORE.RESTR.CAVITY>
3.50514

>  <SCORE.RESTR.norm>
0.0701028

>  <SCORE.SYSTEM>
0

>  <SCORE.SYSTEM.CONST>
0

>  <SCORE.SYSTEM.DIHEDRAL>
0

>  <SCORE.SYSTEM.norm>
0

>  <SCORE.heavy>
50

>  <SCORE.norm>
1.0558

$$$$
