FB1.pdb
  RxDock  10072010583D
librxdock.so/0.1.0
 59 58  0  0  0  0  0  0  0  0999 V2000
   -8.4154    0.9731   -3.1278 C   0  0  0  0  0  0
   -9.8273    1.4155   -3.5048 C   0  0  0  0  0  0
   -9.8481    2.8559   -4.0426 C   0  0  0  0  0  0
   -9.7891    3.9316   -2.9294 C   0  0  0  0  0  0
   -8.3431    4.3778   -2.5166 C   0  0  0  0  0  0
   -7.5988    4.8485   -3.7874 C   0  0  0  0  0  0
   -8.3228    5.5027   -1.3976 C   0  0  0  0  0  0
   -6.9848    6.3741   -1.2689 C   0  0  0  0  0  0
   -6.6451    7.3568   -0.0659 C   0  0  0  0  0  0
   -7.2298    8.8907   -0.2292 C   0  0  0  0  0  0
   -7.1025    9.3049   -1.6943 C   0  0  0  0  0  0
   -8.7275    9.1287    0.2657 C   0  0  0  0  0  0
   -9.1198    9.8980    1.6343 C   0  0  0  0  0  0
   -8.9761   11.4501    1.7963 C   0  0  0  0  0  0
   -9.5682   12.3894    0.6490 C   0  0  0  0  0  0
   -9.8873   13.9251    0.8342 C   0  0  0  0  0  0
   -8.7308   14.9158    1.1320 C   0  0  0  0  0  0
   -9.1239   16.4372    1.2733 C   0  0  0  0  0  0
   -7.9808   17.4069    1.5982 C   0  0  0  0  0  0
   -6.6125   17.1975    0.8896 C   0  0  0  0  0  0
   -6.5397   17.0300   -0.6571 C   0  0  0  0  0  0
   -6.3162   18.2998   -1.4663 C   0  0  0  0  0  0
   -5.5615   15.9896   -1.0275 N   0  0  0  0  0  0
   -5.8634   18.4071    1.1719 O   0  0  0  0  0  0
   -9.7366   16.8509    0.0473 O   0  0  0  0  0  0
  -10.5195    9.6292    1.8211 O   0  0  0  0  0  0
   -5.8811    5.4286   -1.2838 O   0  0  0  0  0  0
   -5.8349    4.5185   -0.2765 C   0  0  0  0  0  0
   -6.4953    4.5413    0.7446 O   0  0  0  0  0  0
   -4.8987    3.4119   -0.6774 C   0  0  0  0  0  0
   -5.5698    2.0296   -0.6432 C   0  0  0  0  0  0
   -7.0660    2.1095   -0.3141 C   0  0  0  0  0  0
   -7.5731    0.7982    0.2397 C   0  0  0  0  0  0
   -8.7612    0.5001    0.2966 O   0  0  0  0  0  0
   -6.5958   -0.0160    0.6648 O   0  0  0  0  0  0
   -5.3710    1.4295   -2.0420 C   0  0  0  0  0  0
   -5.1198    2.1054   -3.0281 O   0  0  0  0  0  0
   -5.5449    0.1022   -2.1042 O   0  0  0  0  0  0
   -9.5343    6.3550   -1.4732 O   0  0  0  0  0  0
   -9.7186    7.1401   -2.5992 C   0  0  0  0  0  0
   -8.8303    7.4595   -3.3784 O   0  0  0  0  0  0
  -11.1792    7.5765   -2.7739 C   0  0  0  0  0  0
  -12.1258    7.2712   -1.5717 C   0  0  0  0  0  0
  -11.9456    8.0929   -0.2823 C   0  0  0  0  0  0
  -12.6266    7.4770    0.9058 C   0  0  0  0  0  0
  -12.4121    6.3576    1.3502 O   0  0  0  0  0  0
  -13.5168    8.3051    1.4734 O   0  0  0  0  0  0
  -13.6203    7.2905   -1.9160 C   0  0  0  0  0  0
  -14.4157    8.0244   -1.3633 O   0  0  0  0  0  0
  -13.9856    6.5108   -2.9551 O   0  0  0  0  0  0
   -4.6438   16.4185   -1.1390 H   0  0  0  0  0  0
   -5.7999   15.6326   -1.9555 H   0  0  0  0  0  0
   -5.7413   18.4002    2.1447 H   0  0  0  0  0  0
  -10.5630   16.3460   -0.0653 H   0  0  0  0  0  0
  -11.0025   10.0140    1.0707 H   0  0  0  0  0  0
   -6.8927   -0.8837    1.0000 H   0  0  0  0  0  0
   -5.4157   -0.2866   -3.0047 H   0  0  0  0  0  0
  -13.4206    9.1716    1.0249 H   0  0  0  0  0  0
  -13.2675    5.9611   -3.3402 H   0  0  0  0  0  0
  1  2  1  0  0  0
  2  3  1  0  0  0
  3  4  1  0  0  0
  4  5  1  0  0  0
  5  6  1  0  0  0
  5  7  1  0  0  0
  7  8  1  0  0  0
  7 39  1  0  0  0
  8  9  1  0  0  0
  8 27  1  0  0  0
  9 10  1  0  0  0
 10 11  1  0  0  0
 10 12  1  0  0  0
 12 13  1  0  0  0
 13 14  1  0  0  0
 13 26  1  0  0  0
 14 15  1  0  0  0
 15 16  1  0  0  0
 16 17  1  0  0  0
 17 18  1  0  0  0
 18 19  1  0  0  0
 18 25  1  0  0  0
 19 20  1  0  0  0
 20 21  1  0  0  0
 20 24  1  0  0  0
 21 22  1  0  0  0
 21 23  1  0  0  0
 23 51  1  0  0  0
 23 52  1  0  0  0
 24 53  1  0  0  0
 25 54  1  0  0  0
 26 55  1  0  0  0
 27 28  1  0  0  0
 28 29  2  0  0  0
 28 30  1  0  0  0
 30 31  1  0  0  0
 31 32  1  0  0  0
 31 36  1  0  0  0
 32 33  1  0  0  0
 33 34  2  0  0  0
 33 35  1  0  0  0
 35 56  1  0  0  0
 36 37  2  0  0  0
 36 38  1  0  0  0
 38 57  1  0  0  0
 39 40  1  0  0  0
 40 41  2  0  0  0
 40 42  1  0  0  0
 42 43  1  0  0  0
 43 44  1  0  0  0
 43 48  1  0  0  0
 44 45  1  0  0  0
 45 46  2  0  0  0
 45 47  1  0  0  0
 47 58  1  0  0  0
 48 49  2  0  0  0
 48 50  1  0  0  0
 50 59  1  0  0  0
M  END
>  <AUTHOR>
    GENERATED BY OPEN BABEL 2.4.1

>  <CHROM.1>
-79.24278812,89.57512987,55.03405309,-159.38142721,-168.19720184,-65.12913377
-86.73460793,-61.86045096,-38.21453985,105.37351567,72.77910755,48.49739247
-62.53330665,161.39453174,63.94407345,178.72275001,178.70154025,40.53614202
64.09842285,50.29504916,92.44801805,64.34341010,-89.26994632,-12.33699165
-123.44162647,4.44286276,-157.67433481,-20.33504540,-162.91955265,-178.01103323
-179.90199144,-19.67672368,9.45763146,71.00036299,-164.09773541,-121.89631253
58.43573727,-6.93341029,4.34392602,-8.65305423,7.80595712,-0.75058339,-1.54286130
-0.00233525,0.14944562

>  <COMPND>
    UNNAMED

>  <MASTER>
        0    0    0    0    0    0    0    0  109    0  109    0

>  <Name>
FB1.pdb

>  <RI>
0

>  <Rbt.Current_Directory>
/home/fc/tossine/FB1_39/p3/2_clust01

>  <Rbt.Executable>
rbdock/0.1.0

>  <Rbt.Library>
librxdock.so/0.1.0

>  <Rbt.Parameter_File>
/cluster/rxdock/data/scripts/dock.prm

>  <Rbt.Receptor>
rx_0.prm

>  <SCORE>
23.6111

>  <SCORE.INTER>
9.64531

>  <SCORE.INTER.CONST>
1

>  <SCORE.INTER.POLAR>
-1.2523

>  <SCORE.INTER.REPUL>
0.524655

>  <SCORE.INTER.ROT>
32

>  <SCORE.INTER.VDW>
-26.1201

>  <SCORE.INTER.norm>
0.192906

>  <SCORE.INTRA>
13.9422

>  <SCORE.INTRA.DIHEDRAL>
4.79669

>  <SCORE.INTRA.DIHEDRAL.0>
47.3121

>  <SCORE.INTRA.POLAR>
1.47808

>  <SCORE.INTRA.POLAR.0>
-1.47808

>  <SCORE.INTRA.REPUL>
0

>  <SCORE.INTRA.REPUL.0>
0

>  <SCORE.INTRA.VDW>
6.51839

>  <SCORE.INTRA.VDW.0>
-2.78316

>  <SCORE.INTRA.norm>
0.278844

>  <SCORE.RESTR>
0.0235865

>  <SCORE.RESTR.CAVITY>
0.0235865

>  <SCORE.RESTR.norm>
0.00047173

>  <SCORE.SYSTEM>
0

>  <SCORE.SYSTEM.CONST>
0

>  <SCORE.SYSTEM.DIHEDRAL>
0

>  <SCORE.SYSTEM.norm>
0

>  <SCORE.heavy>
50

>  <SCORE.norm>
0.472222

$$$$
