FB1.pdb
  RxDock  10072012453D
librxdock.so/0.1.0
 59 58  0  0  0  0  0  0  0  0999 V2000
    9.2215    4.5078   -1.9816 C   0  0  0  0  0  0
   10.3342    4.4243   -0.9395 C   0  0  0  0  0  0
   10.1869    3.1804   -0.0477 C   0  0  0  0  0  0
   11.3762    2.9718    0.9228 C   0  0  0  0  0  0
   11.3518    3.8775    2.2033 C   0  0  0  0  0  0
   11.4810    5.3523    1.7573 C   0  0  0  0  0  0
   10.0616    3.6676    3.1029 C   0  0  0  0  0  0
    8.6939    3.3268    2.3418 C   0  0  0  0  0  0
    8.1072    1.8649    2.1248 C   0  0  0  0  0  0
    9.0935    0.8306    1.3011 C   0  0  0  0  0  0
   10.2465    0.4259    2.2182 C   0  0  0  0  0  0
    8.4005   -0.4766    0.7046 C   0  0  0  0  0  0
    7.0421   -0.4627   -0.1747 C   0  0  0  0  0  0
    6.4152   -1.7686   -0.7729 C   0  0  0  0  0  0
    4.9678   -1.6768   -1.4406 C   0  0  0  0  0  0
    4.0233   -2.9181   -1.6888 C   0  0  0  0  0  0
    2.5639   -2.8857   -1.1629 C   0  0  0  0  0  0
    2.3767   -2.6414    0.3845 C   0  0  0  0  0  0
    3.0205   -1.3712    0.9544 C   0  0  0  0  0  0
    3.7270   -1.4593    2.3370 C   0  0  0  0  0  0
    3.0040   -2.1060    3.5554 C   0  0  0  0  0  0
    1.5520   -1.7038    3.7733 C   0  0  0  0  0  0
    3.1467   -3.5742    3.5325 N   0  0  0  0  0  0
    4.8893   -2.2949    2.1033 O   0  0  0  0  0  0
    0.9721   -2.6017    0.6587 O   0  0  0  0  0  0
    6.0370    0.0665    0.7063 O   0  0  0  0  0  0
    7.6440    4.0333    3.0567 O   0  0  0  0  0  0
    7.5172    3.7712    4.3835 C   0  0  0  0  0  0
    8.0811    4.3551    5.2893 O   0  0  0  0  0  0
    6.4789    2.6977    4.5595 C   0  0  0  0  0  0
    5.0484    3.2590    4.5884 C   0  0  0  0  0  0
    4.6474    3.9175    3.2621 C   0  0  0  0  0  0
    4.4753    2.8859    2.1715 C   0  0  0  0  0  0
    5.2936    2.7014    1.2770 O   0  0  0  0  0  0
    3.3368    2.1843    2.2744 O   0  0  0  0  0  0
    4.1316    2.0628    4.8792 C   0  0  0  0  0  0
    4.4500    0.9065    4.6468 O   0  0  0  0  0  0
    2.9276    2.3941    5.3657 O   0  0  0  0  0  0
   10.3303    2.7196    4.2114 O   0  0  0  0  0  0
   10.5725    3.2338    5.4743 C   0  0  0  0  0  0
   10.8743    4.3972    5.7063 O   0  0  0  0  0  0
   10.4203    2.1754    6.5747 C   0  0  0  0  0  0
   11.3254    2.3691    7.8308 C   0  0  0  0  0  0
   11.2198    3.6983    8.6004 C   0  0  0  0  0  0
    9.9258    4.4185    8.3524 C   0  0  0  0  0  0
    8.8767    3.8990    7.9975 O   0  0  0  0  0  0
   10.0202    5.7371    8.5822 O   0  0  0  0  0  0
   11.2330    1.2391    8.8637 C   0  0  0  0  0  0
   12.1986    0.8170    9.4687 O   0  0  0  0  0  0
    9.9844    0.8089    9.1416 O   0  0  0  0  0  0
    2.9506   -3.9142    2.5920 H   0  0  0  0  0  0
    2.4149   -3.9827    4.1182 H   0  0  0  0  0  0
    4.5245   -3.1280    1.7369 H   0  0  0  0  0  0
    0.5646   -1.9450    0.0644 H   0  0  0  0  0  0
    5.8976   -0.5747    1.4231 H   0  0  0  0  0  0
    3.1800    1.5375    1.5600 H   0  0  0  0  0  0
    2.8108    3.3593    5.5486 H   0  0  0  0  0  0
    9.1344    6.1178    8.4040 H   0  0  0  0  0  0
    9.2618    1.2954    8.6863 H   0  0  0  0  0  0
  1  2  1  0  0  0
  2  3  1  0  0  0
  3  4  1  0  0  0
  4  5  1  0  0  0
  5  6  1  0  0  0
  5  7  1  0  0  0
  7  8  1  0  0  0
  7 39  1  0  0  0
  8  9  1  0  0  0
  8 27  1  0  0  0
  9 10  1  0  0  0
 10 11  1  0  0  0
 10 12  1  0  0  0
 12 13  1  0  0  0
 13 14  1  0  0  0
 13 26  1  0  0  0
 14 15  1  0  0  0
 15 16  1  0  0  0
 16 17  1  0  0  0
 17 18  1  0  0  0
 18 19  1  0  0  0
 18 25  1  0  0  0
 19 20  1  0  0  0
 20 21  1  0  0  0
 20 24  1  0  0  0
 21 22  1  0  0  0
 21 23  1  0  0  0
 23 51  1  0  0  0
 23 52  1  0  0  0
 24 53  1  0  0  0
 25 54  1  0  0  0
 26 55  1  0  0  0
 27 28  1  0  0  0
 28 29  2  0  0  0
 28 30  1  0  0  0
 30 31  1  0  0  0
 31 32  1  0  0  0
 31 36  1  0  0  0
 32 33  1  0  0  0
 33 34  2  0  0  0
 33 35  1  0  0  0
 35 56  1  0  0  0
 36 37  2  0  0  0
 36 38  1  0  0  0
 38 57  1  0  0  0
 39 40  1  0  0  0
 40 41  2  0  0  0
 40 42  1  0  0  0
 42 43  1  0  0  0
 43 44  1  0  0  0
 43 48  1  0  0  0
 44 45  1  0  0  0
 45 46  2  0  0  0
 45 47  1  0  0  0
 47 58  1  0  0  0
 48 49  2  0  0  0
 48 50  1  0  0  0
 50 59  1  0  0  0
M  END
>  <AUTHOR>
    GENERATED BY OPEN BABEL 2.4.1

>  <CHROM.1>
173.75912775,78.88669736,-64.00254362,-33.93424285,96.57921266,100.81248978
-58.78628912,-56.65476917,72.97388549,49.45088273,178.38184043,171.20902368
-66.55587053,-160.77560115,127.19777163,-56.87532985,55.89833837,-139.39406446
-53.28894092,-49.85323763,-44.81225818,-56.49321220,-46.21674139,89.70193042
-84.31763631,63.94584254,69.94555044,-22.93495636,-104.31655619,177.38459079
-5.00910862,-16.95212950,149.31876195,56.90423653,21.34791150,140.92563770
24.43501708,-179.48302640,-2.93503070,7.21759886,1.52948916,3.28262490,-0.59796635
-0.58819496,-1.62651775

>  <COMPND>
    UNNAMED

>  <MASTER>
        0    0    0    0    0    0    0    0  109    0  109    0

>  <Name>
FB1.pdb

>  <RI>
0

>  <Rbt.Current_Directory>
/home/fc/tossine/FB1_39/p3/2_clust01

>  <Rbt.Executable>
rbdock/0.1.0

>  <Rbt.Library>
librxdock.so/0.1.0

>  <Rbt.Parameter_File>
/cluster/rxdock/data/scripts/dock.prm

>  <Rbt.Receptor>
rx_2.prm

>  <SCORE>
18.2976

>  <SCORE.INTER>
-1.00508

>  <SCORE.INTER.CONST>
1

>  <SCORE.INTER.POLAR>
-4.17089

>  <SCORE.INTER.REPUL>
0.939517

>  <SCORE.INTER.ROT>
32

>  <SCORE.INTER.VDW>
-28.9216

>  <SCORE.INTER.norm>
-0.0201016

>  <SCORE.INTRA>
15.8555

>  <SCORE.INTRA.DIHEDRAL>
21.9958

>  <SCORE.INTRA.DIHEDRAL.0>
47.3121

>  <SCORE.INTRA.POLAR>
0.605007

>  <SCORE.INTRA.POLAR.0>
-1.47808

>  <SCORE.INTRA.REPUL>
0

>  <SCORE.INTRA.REPUL.0>
0

>  <SCORE.INTRA.VDW>
2.80052

>  <SCORE.INTRA.VDW.0>
-2.78316

>  <SCORE.INTRA.norm>
0.317109

>  <SCORE.RESTR>
3.44725

>  <SCORE.RESTR.CAVITY>
3.44725

>  <SCORE.RESTR.norm>
0.068945

>  <SCORE.SYSTEM>
0

>  <SCORE.SYSTEM.CONST>
0

>  <SCORE.SYSTEM.DIHEDRAL>
0

>  <SCORE.SYSTEM.norm>
0

>  <SCORE.heavy>
50

>  <SCORE.norm>
0.365953

$$$$
