FB1.pdb
  RxDock  10072012433D
librxdock.so/0.1.0
 59 58  0  0  0  0  0  0  0  0999 V2000
   10.3924    5.8758    5.5619 C   0  0  0  0  0  0
   11.0195    4.7867    4.6948 C   0  0  0  0  0  0
   10.5027    4.8430    3.2477 C   0  0  0  0  0  0
   10.9791    3.6549    2.3752 C   0  0  0  0  0  0
   10.5817    2.2367    2.9148 C   0  0  0  0  0  0
   11.8577    1.5446    3.4470 C   0  0  0  0  0  0
    9.4514    2.2765    4.0278 C   0  0  0  0  0  0
    7.9370    2.1186    3.5302 C   0  0  0  0  0  0
    7.0656    3.2732    2.8700 C   0  0  0  0  0  0
    5.4490    3.1996    3.1902 C   0  0  0  0  0  0
    4.7337    2.6577    1.9538 C   0  0  0  0  0  0
    5.0239    2.3478    4.4703 C   0  0  0  0  0  0
    3.5264    2.3157    5.0827 C   0  0  0  0  0  0
    2.6633    1.0082    5.1236 C   0  0  0  0  0  0
    2.4204    0.2181    3.7576 C   0  0  0  0  0  0
    2.0648    0.9090    2.3825 C   0  0  0  0  0  0
    1.6574    0.0321    1.1691 C   0  0  0  0  0  0
    1.3868    0.7885   -0.1888 C   0  0  0  0  0  0
    1.0126    2.2717   -0.0774 C   0  0  0  0  0  0
   -0.4656    2.6375    0.2380 C   0  0  0  0  0  0
   -1.5181    2.7350   -0.9057 C   0  0  0  0  0  0
   -1.4629    1.6495   -1.9716 C   0  0  0  0  0  0
   -2.8809    2.8655   -0.3561 N   0  0  0  0  0  0
   -0.9363    1.5628    1.0908 O   0  0  0  0  0  0
    2.5617    0.6755   -0.9991 O   0  0  0  0  0  0
    3.6809    2.7064    6.4575 O   0  0  0  0  0  0
    7.9447    1.0597    2.5346 O   0  0  0  0  0  0
    8.3468    1.3946    1.2810 C   0  0  0  0  0  0
    8.6044    2.5148    0.8833 O   0  0  0  0  0  0
    8.5212    0.1315    0.4837 C   0  0  0  0  0  0
    8.7145    0.4025   -1.0168 C   0  0  0  0  0  0
    7.5586    1.2084   -1.6231 C   0  0  0  0  0  0
    6.2688    0.4219   -1.5887 C   0  0  0  0  0  0
    6.2050   -0.7857   -1.7922 O   0  0  0  0  0  0
    5.1925    1.1725   -1.3112 O   0  0  0  0  0  0
   10.0253    1.1919   -1.1374 C   0  0  0  0  0  0
   10.0623    2.3998   -1.3169 O   0  0  0  0  0  0
   11.1321    0.4385   -1.0790 O   0  0  0  0  0  0
    9.7671    1.3530    5.1447 O   0  0  0  0  0  0
    9.8702    1.8758    6.4230 C   0  0  0  0  0  0
   10.2283    3.0173    6.6817 O   0  0  0  0  0  0
    9.4812    0.8578    7.5032 C   0  0  0  0  0  0
    9.2285    1.4440    8.9269 C   0  0  0  0  0  0
   10.4513    1.8542    9.7677 C   0  0  0  0  0  0
   11.7293    1.2284    9.2886 C   0  0  0  0  0  0
   12.0767    1.1202    8.1206 O   0  0  0  0  0  0
   12.4991    0.7958   10.2988 O   0  0  0  0  0  0
    8.2375    2.6138    8.9682 C   0  0  0  0  0  0
    7.8344    3.1733    7.9675 O   0  0  0  0  0  0
    7.7522    2.9193   10.1898 O   0  0  0  0  0  0
   -3.1129    2.0214    0.1658 H   0  0  0  0  0  0
   -3.5458    2.8861   -1.1326 H   0  0  0  0  0  0
   -0.4466    1.6828    1.9318 H   0  0  0  0  0  0
    2.4006    1.1486   -1.8362 H   0  0  0  0  0  0
    4.2070    2.0238    6.9068 H   0  0  0  0  0  0
    4.3457    0.6879   -1.2711 H   0  0  0  0  0  0
   11.9748    0.9524   -1.0113 H   0  0  0  0  0  0
   13.4081    0.7074    9.9419 H   0  0  0  0  0  0
    7.0727    3.6294   10.2060 H   0  0  0  0  0  0
  1  2  1  0  0  0
  2  3  1  0  0  0
  3  4  1  0  0  0
  4  5  1  0  0  0
  5  6  1  0  0  0
  5  7  1  0  0  0
  7  8  1  0  0  0
  7 39  1  0  0  0
  8  9  1  0  0  0
  8 27  1  0  0  0
  9 10  1  0  0  0
 10 11  1  0  0  0
 10 12  1  0  0  0
 12 13  1  0  0  0
 13 14  1  0  0  0
 13 26  1  0  0  0
 14 15  1  0  0  0
 15 16  1  0  0  0
 16 17  1  0  0  0
 17 18  1  0  0  0
 18 19  1  0  0  0
 18 25  1  0  0  0
 19 20  1  0  0  0
 20 21  1  0  0  0
 20 24  1  0  0  0
 21 22  1  0  0  0
 21 23  1  0  0  0
 23 51  1  0  0  0
 23 52  1  0  0  0
 24 53  1  0  0  0
 25 54  1  0  0  0
 26 55  1  0  0  0
 27 28  1  0  0  0
 28 29  2  0  0  0
 28 30  1  0  0  0
 30 31  1  0  0  0
 31 32  1  0  0  0
 31 36  1  0  0  0
 32 33  1  0  0  0
 33 34  2  0  0  0
 33 35  1  0  0  0
 35 56  1  0  0  0
 36 37  2  0  0  0
 36 38  1  0  0  0
 38 57  1  0  0  0
 39 40  1  0  0  0
 40 41  2  0  0  0
 40 42  1  0  0  0
 42 43  1  0  0  0
 43 44  1  0  0  0
 43 48  1  0  0  0
 44 45  1  0  0  0
 45 46  2  0  0  0
 45 47  1  0  0  0
 47 58  1  0  0  0
 48 49  2  0  0  0
 48 50  1  0  0  0
 50 59  1  0  0  0
M  END
>  <AUTHOR>
    GENERATED BY OPEN BABEL 2.4.1

>  <CHROM.1>
-173.02496633,58.06766597,-108.33045408,92.87757770,-78.65861241,121.79093689
-147.76733872,-80.28172310,-103.49714668,171.00980106,116.55367497,-54.88780655
-64.78316034,-43.20006709,-171.50682273,-177.04548545,-23.14714339,-82.07628987
-179.51825122,-84.79010004,42.30721056,68.98300725,-63.72247707,-5.98687094
169.10922658,-56.83121891,-65.30700958,-102.29334184,-38.01644226,-179.24624760
-170.72952412,-29.43368751,-165.57346555,-75.61069772,-18.82606300,-10.58028903
42.95936743,-160.24016611,-176.10928905,6.70930945,1.89760914,3.13422309
0.65659402,-0.00647599,1.46308611

>  <COMPND>
    UNNAMED

>  <MASTER>
        0    0    0    0    0    0    0    0  109    0  109    0

>  <Name>
FB1.pdb

>  <RI>
0

>  <Rbt.Current_Directory>
/home/fc/tossine/FB1_39/p3/2_clust01

>  <Rbt.Executable>
rbdock/0.1.0

>  <Rbt.Library>
librxdock.so/0.1.0

>  <Rbt.Parameter_File>
/cluster/rxdock/data/scripts/dock.prm

>  <Rbt.Receptor>
rx_2.prm

>  <SCORE>
31.1778

>  <SCORE.INTER>
9.06695

>  <SCORE.INTER.CONST>
1

>  <SCORE.INTER.POLAR>
-0.640505

>  <SCORE.INTER.REPUL>
0.174037

>  <SCORE.INTER.ROT>
32

>  <SCORE.INTER.VDW>
-27.0255

>  <SCORE.INTER.norm>
0.181339

>  <SCORE.INTRA>
17.6787

>  <SCORE.INTRA.DIHEDRAL>
22.4381

>  <SCORE.INTRA.DIHEDRAL.0>
47.3121

>  <SCORE.INTRA.POLAR>
0.478077

>  <SCORE.INTRA.POLAR.0>
-1.47808

>  <SCORE.INTRA.REPUL>
0

>  <SCORE.INTRA.REPUL.0>
0

>  <SCORE.INTRA.VDW>
4.8342

>  <SCORE.INTRA.VDW.0>
-2.78316

>  <SCORE.INTRA.norm>
0.353574

>  <SCORE.RESTR>
4.43216

>  <SCORE.RESTR.CAVITY>
4.43216

>  <SCORE.RESTR.norm>
0.0886432

>  <SCORE.SYSTEM>
0

>  <SCORE.SYSTEM.CONST>
0

>  <SCORE.SYSTEM.DIHEDRAL>
0

>  <SCORE.SYSTEM.norm>
0

>  <SCORE.heavy>
50

>  <SCORE.norm>
0.623557

$$$$
