FB1.pdb
  RxDock  10072012403D
librxdock.so/0.1.0
 59 58  0  0  0  0  0  0  0  0999 V2000
   10.0542    1.6258    2.2967 C   0  0  0  0  0  0
    9.0447    2.0244    3.3707 C   0  0  0  0  0  0
    7.7230    2.5140    2.7562 C   0  0  0  0  0  0
    6.7728    3.1781    3.7837 C   0  0  0  0  0  0
    5.2656    3.2320    3.3525 C   0  0  0  0  0  0
    5.0942    4.3779    2.3288 C   0  0  0  0  0  0
    4.7257    1.8605    2.7648 C   0  0  0  0  0  0
    4.8614    0.5668    3.6998 C   0  0  0  0  0  0
    4.6774    0.5559    5.2792 C   0  0  0  0  0  0
    5.4300    1.7865    6.0795 C   0  0  0  0  0  0
    4.6035    2.1386    7.3152 C   0  0  0  0  0  0
    6.9449    1.5253    6.5059 C   0  0  0  0  0  0
    8.0566    2.6903    6.6658 C   0  0  0  0  0  0
    8.1185    3.6259    7.9215 C   0  0  0  0  0  0
    9.4810    4.4025    8.2210 C   0  0  0  0  0  0
   10.6531    4.5756    7.1766 C   0  0  0  0  0  0
   10.3885    5.3337    5.8490 C   0  0  0  0  0  0
    9.6115    6.7023    5.9608 C   0  0  0  0  0  0
   10.4577    7.9393    6.2869 C   0  0  0  0  0  0
   11.1076    8.7195    5.1092 C   0  0  0  0  0  0
   11.7076    7.9576    3.8906 C   0  0  0  0  0  0
   12.1027    8.8051    2.6893 C   0  0  0  0  0  0
   12.8221    7.0876    4.3117 N   0  0  0  0  0  0
   10.0298    9.5189    4.5586 O   0  0  0  0  0  0
    8.9347    6.9286    4.7196 O   0  0  0  0  0  0
    9.3185    2.0019    6.6482 O   0  0  0  0  0  0
    3.8786   -0.3887    3.2165 O   0  0  0  0  0  0
    4.2768   -1.6832    3.1111 C   0  0  0  0  0  0
    3.6080   -2.6651    3.3718 O   0  0  0  0  0  0
    5.6584   -1.7094    2.5178 C   0  0  0  0  0  0
    5.6562   -2.1119    1.0344 C   0  0  0  0  0  0
    4.7769   -1.1931    0.1764 C   0  0  0  0  0  0
    4.7454   -1.6560   -1.2617 C   0  0  0  0  0  0
    5.1124   -2.7684   -1.6243 O   0  0  0  0  0  0
    4.2737   -0.7309   -2.1105 O   0  0  0  0  0  0
    7.1169   -2.0235    0.5712 C   0  0  0  0  0  0
    7.9492   -1.3178    1.1205 O   0  0  0  0  0  0
    7.3958   -2.7489   -0.5206 O   0  0  0  0  0  0
    3.3526    2.0128    2.2252 O   0  0  0  0  0  0
    3.0500    1.4127    1.0143 C   0  0  0  0  0  0
    3.7761    1.4279    0.0289 O   0  0  0  0  0  0
    1.6849    0.7124    1.0347 C   0  0  0  0  0  0
    0.6865    1.1417   -0.0848 C   0  0  0  0  0  0
    0.0079    2.5180    0.0402 C   0  0  0  0  0  0
   -0.8908    2.6223    1.2385 C   0  0  0  0  0  0
   -0.5524    2.9931    2.3541 O   0  0  0  0  0  0
   -2.1572    2.2757    0.9619 O   0  0  0  0  0  0
    1.2440    1.0393   -1.5099 C   0  0  0  0  0  0
    2.3938    0.7268   -1.7482 O   0  0  0  0  0  0
    0.3425    1.2155   -2.4987 O   0  0  0  0  0  0
   13.6326    7.2744    3.7228 H   0  0  0  0  0  0
   12.5711    6.1163    4.1139 H   0  0  0  0  0  0
    9.4554    8.8731    4.0955 H   0  0  0  0  0  0
    8.2032    7.5525    4.8814 H   0  0  0  0  0  0
    9.5436    1.7632    7.5631 H   0  0  0  0  0  0
    3.9132    0.0740   -1.6913 H   0  0  0  0  0  0
    6.6756   -3.3687   -0.7960 H   0  0  0  0  0  0
   -2.5437    1.9338    1.7956 H   0  0  0  0  0  0
    0.7176    1.2545   -3.4064 H   0  0  0  0  0  0
  1  2  1  0  0  0
  2  3  1  0  0  0
  3  4  1  0  0  0
  4  5  1  0  0  0
  5  6  1  0  0  0
  5  7  1  0  0  0
  7  8  1  0  0  0
  7 39  1  0  0  0
  8  9  1  0  0  0
  8 27  1  0  0  0
  9 10  1  0  0  0
 10 11  1  0  0  0
 10 12  1  0  0  0
 12 13  1  0  0  0
 13 14  1  0  0  0
 13 26  1  0  0  0
 14 15  1  0  0  0
 15 16  1  0  0  0
 16 17  1  0  0  0
 17 18  1  0  0  0
 18 19  1  0  0  0
 18 25  1  0  0  0
 19 20  1  0  0  0
 20 21  1  0  0  0
 20 24  1  0  0  0
 21 22  1  0  0  0
 21 23  1  0  0  0
 23 51  1  0  0  0
 23 52  1  0  0  0
 24 53  1  0  0  0
 25 54  1  0  0  0
 26 55  1  0  0  0
 27 28  1  0  0  0
 28 29  2  0  0  0
 28 30  1  0  0  0
 30 31  1  0  0  0
 31 32  1  0  0  0
 31 36  1  0  0  0
 32 33  1  0  0  0
 33 34  2  0  0  0
 33 35  1  0  0  0
 35 56  1  0  0  0
 36 37  2  0  0  0
 36 38  1  0  0  0
 38 57  1  0  0  0
 39 40  1  0  0  0
 40 41  2  0  0  0
 40 42  1  0  0  0
 42 43  1  0  0  0
 43 44  1  0  0  0
 43 48  1  0  0  0
 44 45  1  0  0  0
 45 46  2  0  0  0
 45 47  1  0  0  0
 47 58  1  0  0  0
 48 49  2  0  0  0
 48 50  1  0  0  0
 50 59  1  0  0  0
M  END
>  <AUTHOR>
    GENERATED BY OPEN BABEL 2.4.1

>  <CHROM.1>
-169.04338165,-159.44840323,-77.53014971,56.56931126,36.87099684,137.10883963
-44.90405323,136.65811651,148.18319031,151.19220090,77.87791832,160.52989990
-89.73836538,15.31226674,61.28301331,46.31042225,84.26808538,87.50940076
158.36736135,-38.99195586,169.88763180,-72.50858623,-128.70592077,141.56090131
-103.36494606,57.05228775,-177.29240041,-23.95268905,15.43580043,-7.01680528
-10.18596072,-43.38450542,125.41073251,-74.03247656,-64.17031660,-4.21262962
89.62876179,151.87099362,173.14116415,5.90725794,2.22588924,2.80588643,-0.73543542
0.35479743,-2.79458484

>  <COMPND>
    UNNAMED

>  <MASTER>
        0    0    0    0    0    0    0    0  109    0  109    0

>  <Name>
FB1.pdb

>  <RI>
0

>  <Rbt.Current_Directory>
/home/fc/tossine/FB1_39/p3/2_clust01

>  <Rbt.Executable>
rbdock/0.1.0

>  <Rbt.Library>
librxdock.so/0.1.0

>  <Rbt.Parameter_File>
/cluster/rxdock/data/scripts/dock.prm

>  <Rbt.Receptor>
rx_2.prm

>  <SCORE>
61.633

>  <SCORE.INTER>
38.0456

>  <SCORE.INTER.CONST>
1

>  <SCORE.INTER.POLAR>
-1.10428

>  <SCORE.INTER.REPUL>
1.10354

>  <SCORE.INTER.ROT>
32

>  <SCORE.INTER.VDW>
-1.11751

>  <SCORE.INTER.norm>
0.760913

>  <SCORE.INTRA>
21.6347

>  <SCORE.INTRA.DIHEDRAL>
40.2862

>  <SCORE.INTRA.DIHEDRAL.0>
47.3121

>  <SCORE.INTRA.POLAR>
-0.432153

>  <SCORE.INTRA.POLAR.0>
-1.47808

>  <SCORE.INTRA.REPUL>
0

>  <SCORE.INTRA.REPUL.0>
0

>  <SCORE.INTRA.VDW>
2.96093

>  <SCORE.INTRA.VDW.0>
-2.78316

>  <SCORE.INTRA.norm>
0.432694

>  <SCORE.RESTR>
1.9527

>  <SCORE.RESTR.CAVITY>
1.9527

>  <SCORE.RESTR.norm>
0.039054

>  <SCORE.SYSTEM>
0

>  <SCORE.SYSTEM.CONST>
0

>  <SCORE.SYSTEM.DIHEDRAL>
0

>  <SCORE.SYSTEM.norm>
0

>  <SCORE.heavy>
50

>  <SCORE.norm>
1.23266

$$$$
