FB1.pdb
  RxDock  10072011483D
librxdock.so/0.1.0
 59 58  0  0  0  0  0  0  0  0999 V2000
    8.3716    5.7070   11.3557 C   0  0  0  0  0  0
    8.5805    5.2340    9.9191 C   0  0  0  0  0  0
   10.0710    5.1946    9.5436 C   0  0  0  0  0  0
   10.3347    5.4348    8.0361 C   0  0  0  0  0  0
   10.3303    4.1409    7.1494 C   0  0  0  0  0  0
   10.9624    2.9903    7.9663 C   0  0  0  0  0  0
    8.8881    3.7381    6.6240 C   0  0  0  0  0  0
    7.7864    3.3806    7.7306 C   0  0  0  0  0  0
    6.2134    3.4200    7.5018 C   0  0  0  0  0  0
    5.6971    2.7666    6.0777 C   0  0  0  0  0  0
    5.3135    1.3084    6.3239 C   0  0  0  0  0  0
    4.4929    3.5216    5.3534 C   0  0  0  0  0  0
    3.8214    3.0351    3.9638 C   0  0  0  0  0  0
    4.4559    3.3549    2.5669 C   0  0  0  0  0  0
    4.1567    2.3610    1.3537 C   0  0  0  0  0  0
    4.8910    0.9799    1.1345 C   0  0  0  0  0  0
    4.1547   -0.3410    1.4816 C   0  0  0  0  0  0
    4.8318   -1.6772    0.9863 C   0  0  0  0  0  0
    6.2337   -1.5439    0.3787 C   0  0  0  0  0  0
    6.4026   -0.6802   -0.9034 C   0  0  0  0  0  0
    7.8021   -0.1299   -1.3083 C   0  0  0  0  0  0
    8.7019   -1.0765   -2.0905 C   0  0  0  0  0  0
    7.6771    1.1686   -1.9972 N   0  0  0  0  0  0
    6.0150   -1.5576   -1.9914 O   0  0  0  0  0  0
    4.9018   -2.5757    2.0988 O   0  0  0  0  0  0
    3.7996    1.6001    4.0463 O   0  0  0  0  0  0
    8.0555    2.0138    8.1453 O   0  0  0  0  0  0
    8.6121    1.8397    9.3721 C   0  0  0  0  0  0
    8.3798    2.4988   10.3676 O   0  0  0  0  0  0
    9.4958    0.6238    9.3257 C   0  0  0  0  0  0
   10.0689    0.2576   10.7041 C   0  0  0  0  0  0
   10.4195   -1.2315   10.8190 C   0  0  0  0  0  0
   10.6501   -1.6276   12.2589 C   0  0  0  0  0  0
   11.7606   -1.6924   12.7750 O   0  0  0  0  0  0
    9.5190   -1.9020   12.9254 O   0  0  0  0  0  0
   11.3341    1.1098   10.8749 C   0  0  0  0  0  0
   12.4619    0.6406   10.8555 O   0  0  0  0  0  0
   11.0990    2.4102   11.0975 O   0  0  0  0  0  0
    8.3832    4.7237    5.6373 O   0  0  0  0  0  0
    8.9821    4.7730    4.3895 C   0  0  0  0  0  0
    8.9854    5.7537    3.6569 O   0  0  0  0  0  0
    9.6548    3.4466    4.0119 C   0  0  0  0  0  0
    9.8973    3.2200    2.4873 C   0  0  0  0  0  0
   10.9241    2.1516    2.0692 C   0  0  0  0  0  0
   11.9131    1.8327    3.1530 C   0  0  0  0  0  0
   13.0504    2.2762    3.2342 O   0  0  0  0  0  0
   11.4122    0.9965    4.0750 O   0  0  0  0  0  0
    8.6243    2.9694    1.6695 C   0  0  0  0  0  0
    8.6389    2.7624    0.4721 O   0  0  0  0  0  0
    7.4831    2.8860    2.3849 O   0  0  0  0  0  0
    7.7569    1.9191   -1.3125 H   0  0  0  0  0  0
    6.7282    1.2510   -2.3690 H   0  0  0  0  0  0
    5.0477   -1.6743   -1.8816 H   0  0  0  0  0  0
    4.2690   -2.2719    2.7754 H   0  0  0  0  0  0
    3.1931    1.2688    3.3631 H   0  0  0  0  0  0
    8.6934   -1.6714   12.4576 H   0  0  0  0  0  0
   11.8793    2.9159   11.4354 H   0  0  0  0  0  0
   12.1221    0.8471    4.7346 H   0  0  0  0  0  0
    6.8713    2.1648    2.1167 H   0  0  0  0  0  0
  1  2  1  0  0  0
  2  3  1  0  0  0
  3  4  1  0  0  0
  4  5  1  0  0  0
  5  6  1  0  0  0
  5  7  1  0  0  0
  7  8  1  0  0  0
  7 39  1  0  0  0
  8  9  1  0  0  0
  8 27  1  0  0  0
  9 10  1  0  0  0
 10 11  1  0  0  0
 10 12  1  0  0  0
 12 13  1  0  0  0
 13 14  1  0  0  0
 13 26  1  0  0  0
 14 15  1  0  0  0
 15 16  1  0  0  0
 16 17  1  0  0  0
 17 18  1  0  0  0
 18 19  1  0  0  0
 18 25  1  0  0  0
 19 20  1  0  0  0
 20 21  1  0  0  0
 20 24  1  0  0  0
 21 22  1  0  0  0
 21 23  1  0  0  0
 23 51  1  0  0  0
 23 52  1  0  0  0
 24 53  1  0  0  0
 25 54  1  0  0  0
 26 55  1  0  0  0
 27 28  1  0  0  0
 28 29  2  0  0  0
 28 30  1  0  0  0
 30 31  1  0  0  0
 31 32  1  0  0  0
 31 36  1  0  0  0
 32 33  1  0  0  0
 33 34  2  0  0  0
 33 35  1  0  0  0
 35 56  1  0  0  0
 36 37  2  0  0  0
 36 38  1  0  0  0
 38 57  1  0  0  0
 39 40  1  0  0  0
 40 41  2  0  0  0
 40 42  1  0  0  0
 42 43  1  0  0  0
 43 44  1  0  0  0
 43 48  1  0  0  0
 44 45  1  0  0  0
 45 46  2  0  0  0
 45 47  1  0  0  0
 47 58  1  0  0  0
 48 49  2  0  0  0
 48 50  1  0  0  0
 50 59  1  0  0  0
M  END
>  <AUTHOR>
    GENERATED BY OPEN BABEL 2.4.1

>  <CHROM.1>
-150.74784523,-89.19294293,-36.45956464,-61.88319352,158.80027470,70.37491846
43.56429524,106.55391511,94.47329503,-178.96682161,-81.35419800,153.16749953
164.52443505,-79.44371403,103.80727517,168.72474176,7.81161602,-61.63911728
18.60007677,160.36485964,83.77168523,69.40753162,92.54195000,36.15969162
-174.41361013,154.47373097,-165.93980447,-109.69342584,-96.66925338,-9.82275098
165.03584804,-155.61992992,158.89816688,161.71460767,-21.60090810,-179.29216562
-99.42794057,179.96363229,-137.13917718,8.29032381,1.81757743,5.39265055
-0.37624497,-1.20205369,-0.50520868

>  <COMPND>
    UNNAMED

>  <MASTER>
        0    0    0    0    0    0    0    0  109    0  109    0

>  <Name>
FB1.pdb

>  <RI>
0

>  <Rbt.Current_Directory>
/home/fc/tossine/FB1_39/p3/2_clust01

>  <Rbt.Executable>
rbdock/0.1.0

>  <Rbt.Library>
librxdock.so/0.1.0

>  <Rbt.Parameter_File>
/cluster/rxdock/data/scripts/dock.prm

>  <Rbt.Receptor>
rx_1.prm

>  <SCORE>
50.8704

>  <SCORE.INTER>
18.2581

>  <SCORE.INTER.CONST>
1

>  <SCORE.INTER.POLAR>
-0.375926

>  <SCORE.INTER.REPUL>
0.97826

>  <SCORE.INTER.ROT>
32

>  <SCORE.INTER.VDW>
-22.7551

>  <SCORE.INTER.norm>
0.365162

>  <SCORE.INTRA>
30.2213

>  <SCORE.INTRA.DIHEDRAL>
43.8498

>  <SCORE.INTRA.DIHEDRAL.0>
47.3121

>  <SCORE.INTRA.POLAR>
0.512028

>  <SCORE.INTRA.POLAR.0>
-1.47808

>  <SCORE.INTRA.REPUL>
0

>  <SCORE.INTRA.REPUL.0>
0

>  <SCORE.INTRA.VDW>
6.55551

>  <SCORE.INTRA.VDW.0>
-2.78316

>  <SCORE.INTRA.norm>
0.604426

>  <SCORE.RESTR>
2.39104

>  <SCORE.RESTR.CAVITY>
2.39104

>  <SCORE.RESTR.norm>
0.0478209

>  <SCORE.SYSTEM>
0

>  <SCORE.SYSTEM.CONST>
0

>  <SCORE.SYSTEM.DIHEDRAL>
0

>  <SCORE.SYSTEM.norm>
0

>  <SCORE.heavy>
50

>  <SCORE.norm>
1.01741

$$$$
