FB1.pdb
  RxDock  10072012463D
librxdock.so/0.1.0
 59 58  0  0  0  0  0  0  0  0999 V2000
    4.9731   -2.4097    0.9869 C   0  0  0  0  0  0
    5.5683   -1.6604   -0.2028 C   0  0  0  0  0  0
    5.0951   -0.1981   -0.2494 C   0  0  0  0  0  0
    5.3439    0.5739    1.0703 C   0  0  0  0  0  0
    4.9635    2.0950    1.0287 C   0  0  0  0  0  0
    3.4222    2.2089    0.9813 C   0  0  0  0  0  0
    5.5571    2.9296    2.2407 C   0  0  0  0  0  0
    4.9277    2.6553    3.6881 C   0  0  0  0  0  0
    3.7521    1.6296    3.9951 C   0  0  0  0  0  0
    4.2283    0.0659    4.2172 C   0  0  0  0  0  0
    4.4748   -0.1590    5.7081 C   0  0  0  0  0  0
    3.2385   -1.0559    3.6635 C   0  0  0  0  0  0
    1.6414   -1.0660    3.9240 C   0  0  0  0  0  0
    0.6879    0.0318    3.3394 C   0  0  0  0  0  0
    0.8055    0.3888    1.7876 C   0  0  0  0  0  0
    0.1872    1.6817    1.1239 C   0  0  0  0  0  0
   -1.3324    1.9613    1.2647 C   0  0  0  0  0  0
   -1.9870    2.8762    0.1585 C   0  0  0  0  0  0
   -3.4668    3.2279    0.3561 C   0  0  0  0  0  0
   -4.1922    4.0220   -0.7671 C   0  0  0  0  0  0
   -4.2460    3.4663   -2.2209 C   0  0  0  0  0  0
   -2.9099    3.2901   -2.9288 C   0  0  0  0  0  0
   -5.0418    2.2255   -2.2801 N   0  0  0  0  0  0
   -5.5762    4.0849   -0.3377 O   0  0  0  0  0  0
   -1.2355    4.0929    0.0902 O   0  0  0  0  0  0
    1.1820   -2.3037    3.3551 O   0  0  0  0  0  0
    6.0246    2.2079    4.5301 O   0  0  0  0  0  0
    6.0816    2.7138    5.7895 C   0  0  0  0  0  0
    5.1353    3.0735    6.4637 O   0  0  0  0  0  0
    7.5093    2.6628    6.2588 C   0  0  0  0  0  0
    7.8235    3.7379    7.3114 C   0  0  0  0  0  0
    7.3127    3.3614    8.7080 C   0  0  0  0  0  0
    6.6191    4.5303    9.3682 C   0  0  0  0  0  0
    7.1799    5.3082   10.1325 O   0  0  0  0  0  0
    5.3241    4.6398    9.0369 O   0  0  0  0  0  0
    9.3522    3.8755    7.3306 C   0  0  0  0  0  0
   10.0933    3.0176    7.7857 O   0  0  0  0  0  0
    9.8087    5.0403    6.8502 O   0  0  0  0  0  0
    7.0388    2.8662    2.2596 O   0  0  0  0  0  0
    7.7280    3.7844    3.0343 C   0  0  0  0  0  0
    7.2715    4.8534    3.4182 O   0  0  0  0  0  0
    9.1499    3.3152    3.3693 C   0  0  0  0  0  0
   10.2080    3.4984    2.2373 C   0  0  0  0  0  0
   11.6580    3.0687    2.5261 C   0  0  0  0  0  0
   11.8403    1.5783    2.5205 C   0  0  0  0  0  0
   12.2268    0.9032    3.4646 O   0  0  0  0  0  0
   11.5099    1.0254    1.3435 O   0  0  0  0  0  0
    9.8130    2.8823    0.8895 C   0  0  0  0  0  0
    8.7739    2.2754    0.7201 O   0  0  0  0  0  0
   10.6483    3.1487   -0.1364 O   0  0  0  0  0  0
   -5.3613    2.0788   -3.2366 H   0  0  0  0  0  0
   -5.8963    2.3591   -1.7346 H   0  0  0  0  0  0
   -5.5658    4.6791    0.4421 H   0  0  0  0  0  0
   -1.0316    4.3760    1.0005 H   0  0  0  0  0  0
    1.4175   -3.0214    3.9665 H   0  0  0  0  0  0
    5.0121    4.0077    8.3612 H   0  0  0  0  0  0
    9.1111    5.6266    6.4649 H   0  0  0  0  0  0
   11.7405    0.0744    1.4049 H   0  0  0  0  0  0
   10.3994    2.7432   -0.9965 H   0  0  0  0  0  0
  1  2  1  0  0  0
  2  3  1  0  0  0
  3  4  1  0  0  0
  4  5  1  0  0  0
  5  6  1  0  0  0
  5  7  1  0  0  0
  7  8  1  0  0  0
  7 39  1  0  0  0
  8  9  1  0  0  0
  8 27  1  0  0  0
  9 10  1  0  0  0
 10 11  1  0  0  0
 10 12  1  0  0  0
 12 13  1  0  0  0
 13 14  1  0  0  0
 13 26  1  0  0  0
 14 15  1  0  0  0
 15 16  1  0  0  0
 16 17  1  0  0  0
 17 18  1  0  0  0
 18 19  1  0  0  0
 18 25  1  0  0  0
 19 20  1  0  0  0
 20 21  1  0  0  0
 20 24  1  0  0  0
 21 22  1  0  0  0
 21 23  1  0  0  0
 23 51  1  0  0  0
 23 52  1  0  0  0
 24 53  1  0  0  0
 25 54  1  0  0  0
 26 55  1  0  0  0
 27 28  1  0  0  0
 28 29  2  0  0  0
 28 30  1  0  0  0
 30 31  1  0  0  0
 31 32  1  0  0  0
 31 36  1  0  0  0
 32 33  1  0  0  0
 33 34  2  0  0  0
 33 35  1  0  0  0
 35 56  1  0  0  0
 36 37  2  0  0  0
 36 38  1  0  0  0
 38 57  1  0  0  0
 39 40  1  0  0  0
 40 41  2  0  0  0
 40 42  1  0  0  0
 42 43  1  0  0  0
 43 44  1  0  0  0
 43 48  1  0  0  0
 44 45  1  0  0  0
 45 46  2  0  0  0
 45 47  1  0  0  0
 47 58  1  0  0  0
 48 49  2  0  0  0
 48 50  1  0  0  0
 50 59  1  0  0  0
M  END
>  <AUTHOR>
    GENERATED BY OPEN BABEL 2.4.1

>  <CHROM.1>
53.70701943,176.03371045,70.87636788,-70.30356256,-0.69710508,164.48021162
84.30842109,137.47104389,91.96840752,-47.23796431,65.81778150,49.28008016
76.60890398,-164.55347592,-56.47040508,-156.07373481,-175.92598767,-174.73098091
-42.21430540,57.29936198,-62.26931004,69.12256823,158.55644753,29.44337681
153.29568638,78.42650012,-134.90897615,-71.00990626,-94.42202483,-4.97353330
-5.59423366,-20.72573922,79.22651125,178.90692385,74.65692428,-1.48777932
-119.52453558,174.69819532,179.23602180,4.70812156,2.24578287,2.97784845
-2.72648597,-0.07862054,1.26755161

>  <COMPND>
    UNNAMED

>  <MASTER>
        0    0    0    0    0    0    0    0  109    0  109    0

>  <Name>
FB1.pdb

>  <RI>
0

>  <Rbt.Current_Directory>
/home/fc/tossine/FB1_39/p3/2_clust01

>  <Rbt.Executable>
rbdock/0.1.0

>  <Rbt.Library>
librxdock.so/0.1.0

>  <Rbt.Parameter_File>
/cluster/rxdock/data/scripts/dock.prm

>  <Rbt.Receptor>
rx_2.prm

>  <SCORE>
6.09919

>  <SCORE.INTER>
2.19246

>  <SCORE.INTER.CONST>
1

>  <SCORE.INTER.POLAR>
-2.2618

>  <SCORE.INTER.REPUL>
0.759702

>  <SCORE.INTER.ROT>
32

>  <SCORE.INTER.VDW>
-31.3159

>  <SCORE.INTER.norm>
0.0438491

>  <SCORE.INTRA>
3.37815

>  <SCORE.INTRA.DIHEDRAL>
6.30282

>  <SCORE.INTRA.DIHEDRAL.0>
47.3121

>  <SCORE.INTRA.POLAR>
0.356722

>  <SCORE.INTRA.POLAR.0>
-1.47808

>  <SCORE.INTRA.REPUL>
0

>  <SCORE.INTRA.REPUL.0>
0

>  <SCORE.INTRA.VDW>
-0.98611

>  <SCORE.INTRA.VDW.0>
-2.78316

>  <SCORE.INTRA.norm>
0.0675631

>  <SCORE.RESTR>
0.528582

>  <SCORE.RESTR.CAVITY>
0.528582

>  <SCORE.RESTR.norm>
0.0105716

>  <SCORE.SYSTEM>
0

>  <SCORE.SYSTEM.CONST>
0

>  <SCORE.SYSTEM.DIHEDRAL>
0

>  <SCORE.SYSTEM.norm>
0

>  <SCORE.heavy>
50

>  <SCORE.norm>
0.121984

$$$$
