FB1.pdb
  RxDock  10072010583D
librxdock.so/0.1.0
 59 58  0  0  0  0  0  0  0  0999 V2000
  -13.9213    7.6830    2.3691 C   0  0  0  0  0  0
  -12.7235    8.6204    2.5033 C   0  0  0  0  0  0
  -12.6153    9.5808    1.3074 C   0  0  0  0  0  0
  -11.2534   10.3145    1.2258 C   0  0  0  0  0  0
  -10.8807   10.8613   -0.1963 C   0  0  0  0  0  0
  -10.7307   12.3972   -0.1020 C   0  0  0  0  0  0
   -9.5737   10.1998   -0.8065 C   0  0  0  0  0  0
   -8.2354   10.2963    0.0685 C   0  0  0  0  0  0
   -7.4994    9.0646    0.7536 C   0  0  0  0  0  0
   -6.8721    7.9543   -0.2929 C   0  0  0  0  0  0
   -5.3794    8.2340   -0.4595 C   0  0  0  0  0  0
   -7.0893    6.4220    0.0943 C   0  0  0  0  0  0
   -6.2271    5.1992   -0.5221 C   0  0  0  0  0  0
   -4.6614    5.1630   -0.4659 C   0  0  0  0  0  0
   -3.8521    5.2462   -1.8397 C   0  0  0  0  0  0
   -2.6955    4.2524   -2.2513 C   0  0  0  0  0  0
   -3.0263    2.7583   -2.5074 C   0  0  0  0  0  0
   -1.9496    1.7063   -2.0351 C   0  0  0  0  0  0
   -0.5804    1.7803   -2.7223 C   0  0  0  0  0  0
    0.5448    0.8270   -2.2288 C   0  0  0  0  0  0
    1.1738   -0.2211   -3.1939 C   0  0  0  0  0  0
    1.8053    0.3237   -4.4673 C   0  0  0  0  0  0
    2.1138   -1.1009   -2.4737 N   0  0  0  0  0  0
    1.6390    1.7069   -1.8654 O   0  0  0  0  0  0
   -1.7605    1.8703   -0.6255 O   0  0  0  0  0  0
   -6.6558    4.0388    0.2102 O   0  0  0  0  0  0
   -7.2256   10.8828   -0.7968 O   0  0  0  0  0  0
   -7.0972   10.3541   -2.0415 C   0  0  0  0  0  0
   -7.5492    9.2908   -2.4216 O   0  0  0  0  0  0
   -6.3848   11.3525   -2.9116 C   0  0  0  0  0  0
   -7.0808   12.7228   -2.9293 C   0  0  0  0  0  0
   -6.5420   13.6425   -4.0327 C   0  0  0  0  0  0
   -6.7845   15.0958   -3.6977 C   0  0  0  0  0  0
   -7.2340   15.9102   -4.4966 O   0  0  0  0  0  0
   -6.4615   15.4142   -2.4354 O   0  0  0  0  0  0
   -8.5702   12.4364   -3.1650 C   0  0  0  0  0  0
   -8.9870   11.3611   -3.5679 O   0  0  0  0  0  0
   -9.3770   13.4823   -2.9390 O   0  0  0  0  0  0
   -9.8385    8.8139   -1.2637 O   0  0  0  0  0  0
  -10.2369    7.8755   -0.3263 C   0  0  0  0  0  0
   -9.9666    7.9247    0.8666 O   0  0  0  0  0  0
  -11.0688    6.7460   -0.9480 C   0  0  0  0  0  0
  -10.3853    5.3439   -0.9869 C   0  0  0  0  0  0
   -9.8635    4.7566    0.3372 C   0  0  0  0  0  0
  -10.9561    4.4921    1.3326 C   0  0  0  0  0  0
  -11.2127    3.4086    1.8394 O   0  0  0  0  0  0
  -11.6447    5.6004    1.6452 O   0  0  0  0  0  0
  -11.2130    4.2498   -1.6725 C   0  0  0  0  0  0
  -12.3758    4.4032   -1.9905 O   0  0  0  0  0  0
  -10.5346    3.1306   -2.0016 O   0  0  0  0  0  0
    1.5914   -1.6889   -1.8257 H   0  0  0  0  0  0
    2.7130   -0.5227   -1.8803 H   0  0  0  0  0  0
    1.3226    2.1764   -1.0649 H   0  0  0  0  0  0
   -1.2132    1.1303   -0.3039 H   0  0  0  0  0  0
   -7.5365    3.7867   -0.1146 H   0  0  0  0  0  0
   -6.1673   14.6673   -1.8796 H   0  0  0  0  0  0
  -10.3399   13.2919   -3.0632 H   0  0  0  0  0  0
  -12.3121    5.3377    2.3137 H   0  0  0  0  0  0
   -9.5876    3.1211   -1.7383 H   0  0  0  0  0  0
  1  2  1  0  0  0
  2  3  1  0  0  0
  3  4  1  0  0  0
  4  5  1  0  0  0
  5  6  1  0  0  0
  5  7  1  0  0  0
  7  8  1  0  0  0
  7 39  1  0  0  0
  8  9  1  0  0  0
  8 27  1  0  0  0
  9 10  1  0  0  0
 10 11  1  0  0  0
 10 12  1  0  0  0
 12 13  1  0  0  0
 13 14  1  0  0  0
 13 26  1  0  0  0
 14 15  1  0  0  0
 15 16  1  0  0  0
 16 17  1  0  0  0
 17 18  1  0  0  0
 18 19  1  0  0  0
 18 25  1  0  0  0
 19 20  1  0  0  0
 20 21  1  0  0  0
 20 24  1  0  0  0
 21 22  1  0  0  0
 21 23  1  0  0  0
 23 51  1  0  0  0
 23 52  1  0  0  0
 24 53  1  0  0  0
 25 54  1  0  0  0
 26 55  1  0  0  0
 27 28  1  0  0  0
 28 29  2  0  0  0
 28 30  1  0  0  0
 30 31  1  0  0  0
 31 32  1  0  0  0
 31 36  1  0  0  0
 32 33  1  0  0  0
 33 34  2  0  0  0
 33 35  1  0  0  0
 35 56  1  0  0  0
 36 37  2  0  0  0
 36 38  1  0  0  0
 38 57  1  0  0  0
 39 40  1  0  0  0
 40 41  2  0  0  0
 40 42  1  0  0  0
 42 43  1  0  0  0
 43 44  1  0  0  0
 43 48  1  0  0  0
 44 45  1  0  0  0
 45 46  2  0  0  0
 45 47  1  0  0  0
 47 58  1  0  0  0
 48 49  2  0  0  0
 48 50  1  0  0  0
 50 59  1  0  0  0
M  END
>  <AUTHOR>
    GENERATED BY OPEN BABEL 2.4.1

>  <CHROM.1>
-166.44713093,158.08877032,119.21463287,-56.05213833,112.39148005,-61.87961188
64.97399556,-48.04335109,98.62800203,-161.71634110,54.50688316,-114.15771872
74.92947237,-130.21449921,65.92109224,-142.91621466,-63.24932043,176.09406612
170.63624997,118.75182276,57.81191346,69.24745314,68.07974561,-15.12234464
-55.12612852,-167.72859386,-156.38599186,-15.43778043,-133.86852384,-3.66496708
-178.19685639,-26.38393616,111.16651028,55.06679541,63.66299664,-9.98151643
121.90324412,-178.37742288,2.08466302,-7.17265670,7.24598484,-1.17512673
2.39435816,0.35993566,-0.24228403

>  <COMPND>
    UNNAMED

>  <MASTER>
        0    0    0    0    0    0    0    0  109    0  109    0

>  <Name>
FB1.pdb

>  <RI>
0

>  <Rbt.Current_Directory>
/home/fc/tossine/FB1_39/p3/2_clust01

>  <Rbt.Executable>
rbdock/0.1.0

>  <Rbt.Library>
librxdock.so/0.1.0

>  <Rbt.Parameter_File>
/cluster/rxdock/data/scripts/dock.prm

>  <Rbt.Receptor>
rx_0.prm

>  <SCORE>
39.9377

>  <SCORE.INTER>
23.7675

>  <SCORE.INTER.CONST>
1

>  <SCORE.INTER.POLAR>
0

>  <SCORE.INTER.REPUL>
1.38023

>  <SCORE.INTER.ROT>
32

>  <SCORE.INTER.VDW>
-20.5337

>  <SCORE.INTER.norm>
0.475349

>  <SCORE.INTRA>
13.8339

>  <SCORE.INTRA.DIHEDRAL>
17.0765

>  <SCORE.INTRA.DIHEDRAL.0>
47.3121

>  <SCORE.INTRA.POLAR>
1.47463

>  <SCORE.INTRA.POLAR.0>
-1.47808

>  <SCORE.INTRA.REPUL>
0.000717473

>  <SCORE.INTRA.REPUL.0>
0

>  <SCORE.INTRA.VDW>
0.278329

>  <SCORE.INTRA.VDW.0>
-2.78316

>  <SCORE.INTRA.norm>
0.276678

>  <SCORE.RESTR>
2.33632

>  <SCORE.RESTR.CAVITY>
2.33632

>  <SCORE.RESTR.norm>
0.0467263

>  <SCORE.SYSTEM>
0

>  <SCORE.SYSTEM.CONST>
0

>  <SCORE.SYSTEM.DIHEDRAL>
0

>  <SCORE.SYSTEM.norm>
0

>  <SCORE.heavy>
50

>  <SCORE.norm>
0.798754

$$$$
