FB1.pdb
  RxDock  10072013323D
librxdock.so/0.1.0
 59 58  0  0  0  0  0  0  0  0999 V2000
  -13.0759    6.5781   -1.9988 C   0  0  0  0  0  0
  -13.3305    7.1291   -3.3998 C   0  0  0  0  0  0
  -12.2411    8.1269   -3.8259 C   0  0  0  0  0  0
  -10.8894    7.4545   -4.1730 C   0  0  0  0  0  0
  -10.1787    6.7388   -2.9716 C   0  0  0  0  0  0
   -8.8112    6.2097   -3.4619 C   0  0  0  0  0  0
  -10.0042    7.6659   -1.6957 C   0  0  0  0  0  0
   -8.9637    7.1769   -0.5802 C   0  0  0  0  0  0
   -7.8453    8.0872    0.0896 C   0  0  0  0  0  0
   -6.2913    7.6370   -0.2327 C   0  0  0  0  0  0
   -5.3544    8.4640    0.6461 C   0  0  0  0  0  0
   -5.9581    6.0867   -0.0590 C   0  0  0  0  0  0
   -4.6016    5.3845   -0.5932 C   0  0  0  0  0  0
   -4.2891    5.2133   -2.1194 C   0  0  0  0  0  0
   -3.2883    4.0506   -2.5618 C   0  0  0  0  0  0
   -2.0616    3.5574   -1.6977 C   0  0  0  0  0  0
   -2.3175    2.8489   -0.3413 C   0  0  0  0  0  0
   -1.0499    2.5524    0.5500 C   0  0  0  0  0  0
   -1.1945    1.4294    1.5847 C   0  0  0  0  0  0
   -0.0732    1.2582    2.6486 C   0  0  0  0  0  0
    0.9703    0.1093    2.5206 C   0  0  0  0  0  0
    1.9034    0.1722    1.3194 C   0  0  0  0  0  0
    1.7332   -0.0496    3.7732 N   0  0  0  0  0  0
    0.7024    2.4810    2.5652 O   0  0  0  0  0  0
    0.0380    2.2293   -0.3228 O   0  0  0  0  0  0
   -3.5358    6.2022   -0.0814 O   0  0  0  0  0  0
   -9.7607    6.7039    0.5394 O   0  0  0  0  0  0
   -9.6306    5.3953    0.8799 C   0  0  0  0  0  0
   -8.6349    4.7110    0.7395 O   0  0  0  0  0  0
  -10.8972    4.9518    1.5585 C   0  0  0  0  0  0
  -10.8328    3.4910    2.0322 C   0  0  0  0  0  0
  -12.1849    2.9781    2.5442 C   0  0  0  0  0  0
  -12.5297    3.5914    3.8815 C   0  0  0  0  0  0
  -12.3985    4.7840    4.1348 O   0  0  0  0  0  0
  -12.9976    2.7039    4.7716 O   0  0  0  0  0  0
  -10.3875    2.6715    0.8132 C   0  0  0  0  0  0
   -9.3225    2.0751    0.7635 O   0  0  0  0  0  0
  -11.2437    2.7031   -0.2172 O   0  0  0  0  0  0
   -9.7742    9.0779   -2.0873 O   0  0  0  0  0  0
  -10.4164   10.0737   -1.3703 C   0  0  0  0  0  0
  -11.0364    9.8935   -0.3303 O   0  0  0  0  0  0
  -10.2678   11.4532   -2.0254 C   0  0  0  0  0  0
  -10.2107   12.6659   -1.0452 C   0  0  0  0  0  0
   -8.8958   12.9210   -0.2860 C   0  0  0  0  0  0
   -8.4898   11.7692    0.5873 C   0  0  0  0  0  0
   -7.4955   11.0732    0.4339 O   0  0  0  0  0  0
   -9.3403   11.5731    1.6064 O   0  0  0  0  0  0
  -10.6464   14.0025   -1.6584 C   0  0  0  0  0  0
  -10.3144   14.3573   -2.7723 O   0  0  0  0  0  0
  -11.5173   14.7221   -0.9203 O   0  0  0  0  0  0
    2.1984   -0.9564    3.7684 H   0  0  0  0  0  0
    1.0741   -0.0959    4.5535 H   0  0  0  0  0  0
    0.0925    3.1819    2.8783 H   0  0  0  0  0  0
   -0.1663    1.3840   -0.7635 H   0  0  0  0  0  0
   -3.4128    6.9508   -0.6889 H   0  0  0  0  0  0
  -13.2074    3.0686    5.6527 H   0  0  0  0  0  0
  -12.0816    3.1981   -0.0391 H   0  0  0  0  0  0
   -8.9977   10.8085    2.1156 H   0  0  0  0  0  0
  -11.9978   15.4276   -1.4078 H   0  0  0  0  0  0
  1  2  1  0  0  0
  2  3  1  0  0  0
  3  4  1  0  0  0
  4  5  1  0  0  0
  5  6  1  0  0  0
  5  7  1  0  0  0
  7  8  1  0  0  0
  7 39  1  0  0  0
  8  9  1  0  0  0
  8 27  1  0  0  0
  9 10  1  0  0  0
 10 11  1  0  0  0
 10 12  1  0  0  0
 12 13  1  0  0  0
 13 14  1  0  0  0
 13 26  1  0  0  0
 14 15  1  0  0  0
 15 16  1  0  0  0
 16 17  1  0  0  0
 17 18  1  0  0  0
 18 19  1  0  0  0
 18 25  1  0  0  0
 19 20  1  0  0  0
 20 21  1  0  0  0
 20 24  1  0  0  0
 21 22  1  0  0  0
 21 23  1  0  0  0
 23 51  1  0  0  0
 23 52  1  0  0  0
 24 53  1  0  0  0
 25 54  1  0  0  0
 26 55  1  0  0  0
 27 28  1  0  0  0
 28 29  2  0  0  0
 28 30  1  0  0  0
 30 31  1  0  0  0
 31 32  1  0  0  0
 31 36  1  0  0  0
 32 33  1  0  0  0
 33 34  2  0  0  0
 33 35  1  0  0  0
 35 56  1  0  0  0
 36 37  2  0  0  0
 36 38  1  0  0  0
 38 57  1  0  0  0
 39 40  1  0  0  0
 40 41  2  0  0  0
 40 42  1  0  0  0
 42 43  1  0  0  0
 43 44  1  0  0  0
 43 48  1  0  0  0
 44 45  1  0  0  0
 45 46  2  0  0  0
 45 47  1  0  0  0
 47 58  1  0  0  0
 48 49  2  0  0  0
 48 50  1  0  0  0
 50 59  1  0  0  0
M  END
>  <AUTHOR>
    GENERATED BY OPEN BABEL 2.4.1

>  <CHROM.1>
73.34416425,-64.69220589,-176.19302642,-164.08186836,132.21602272,138.42469175
-115.17582214,118.17540185,-171.32470258,167.44380878,-68.25051872,-155.95160391
-83.67122926,-32.95636976,66.19765558,-172.35671987,-157.62640600,-169.62270745
-66.72832407,-103.77839676,64.78616448,66.54941344,163.37104428,29.81876594
-177.89600036,-171.92779324,-72.36677378,114.80045357,44.93128543,178.51722097
-4.03813194,9.37446691,-147.40486243,76.71375756,-60.15048592,-42.29539818
114.50620814,179.95059665,-162.59655009,-7.55676971,6.29238683,-0.00393158
2.44299371,0.08012863,-0.37069681

>  <COMPND>
    UNNAMED

>  <MASTER>
        0    0    0    0    0    0    0    0  109    0  109    0

>  <Name>
FB1.pdb

>  <RI>
0

>  <Rbt.Current_Directory>
/home/fc/tossine/FB1_39/p3/2_clust01

>  <Rbt.Executable>
rbdock/0.1.0

>  <Rbt.Library>
librxdock.so/0.1.0

>  <Rbt.Parameter_File>
/cluster/rxdock/data/scripts/dock.prm

>  <Rbt.Receptor>
rx_3.prm

>  <SCORE>
15.5467

>  <SCORE.INTER>
4.42707

>  <SCORE.INTER.CONST>
1

>  <SCORE.INTER.POLAR>
-2.92785

>  <SCORE.INTER.REPUL>
0.0635552

>  <SCORE.INTER.ROT>
32

>  <SCORE.INTER.VDW>
-23.336

>  <SCORE.INTER.norm>
0.0885413

>  <SCORE.INTRA>
10.1227

>  <SCORE.INTRA.DIHEDRAL>
13.6036

>  <SCORE.INTRA.DIHEDRAL.0>
47.3121

>  <SCORE.INTRA.POLAR>
1.47808

>  <SCORE.INTRA.POLAR.0>
-1.47808

>  <SCORE.INTRA.REPUL>
0

>  <SCORE.INTRA.REPUL.0>
0

>  <SCORE.INTRA.VDW>
-1.70455

>  <SCORE.INTRA.VDW.0>
-2.78316

>  <SCORE.INTRA.norm>
0.202454

>  <SCORE.RESTR>
0.996993

>  <SCORE.RESTR.CAVITY>
0.996993

>  <SCORE.RESTR.norm>
0.0199399

>  <SCORE.SYSTEM>
0

>  <SCORE.SYSTEM.CONST>
0

>  <SCORE.SYSTEM.DIHEDRAL>
0

>  <SCORE.SYSTEM.norm>
0

>  <SCORE.heavy>
50

>  <SCORE.norm>
0.310935

$$$$
