FB1.pdb
  RxDock  10072013273D
librxdock.so/0.1.0
 59 58  0  0  0  0  0  0  0  0999 V2000
   12.4608    6.3432   -0.0800 C   0  0  0  0  0  0
   12.1753    5.4744    1.1427 C   0  0  0  0  0  0
   12.6052    4.0154    0.9173 C   0  0  0  0  0  0
   11.7617    3.2816   -0.1549 C   0  0  0  0  0  0
   10.5828    2.4147    0.4100 C   0  0  0  0  0  0
   11.1856    1.2522    1.2322 C   0  0  0  0  0  0
    9.5454    3.2449    1.2774 C   0  0  0  0  0  0
    8.2189    2.4810    1.7497 C   0  0  0  0  0  0
    7.1238    3.0746    2.7379 C   0  0  0  0  0  0
    5.9394    2.0174    3.1860 C   0  0  0  0  0  0
    6.3163    0.6250    2.6828 C   0  0  0  0  0  0
    5.6089    1.9514    4.7452 C   0  0  0  0  0  0
    4.3455    2.6886    5.4372 C   0  0  0  0  0  0
    3.1076    1.8981    5.9839 C   0  0  0  0  0  0
    2.2561    1.0203    4.9574 C   0  0  0  0  0  0
    2.8863    0.0546    3.8782 C   0  0  0  0  0  0
    1.9550   -0.7215    2.9099 C   0  0  0  0  0  0
    2.4588   -0.8819    1.4234 C   0  0  0  0  0  0
    1.4590   -1.4844    0.4284 C   0  0  0  0  0  0
    1.9621   -1.8375   -1.0000 C   0  0  0  0  0  0
    2.1570   -0.7216   -2.0688 C   0  0  0  0  0  0
    0.9224   -0.3235   -2.8655 C   0  0  0  0  0  0
    2.8084    0.4633   -1.4787 N   0  0  0  0  0  0
    3.2847   -2.3970   -0.7961 O   0  0  0  0  0  0
    2.8509    0.4104    0.9480 O   0  0  0  0  0  0
    4.8935    3.3653    6.5811 O   0  0  0  0  0  0
    7.4784    2.1664    0.5392 O   0  0  0  0  0  0
    7.8859    1.0810   -0.1686 C   0  0  0  0  0  0
    8.7725    0.3093    0.1444 O   0  0  0  0  0  0
    6.9871    0.9277   -1.3645 C   0  0  0  0  0  0
    7.1102   -0.4561   -2.0220 C   0  0  0  0  0  0
    6.9442   -1.6025   -1.0163 C   0  0  0  0  0  0
    5.7612   -1.3630   -0.1072 C   0  0  0  0  0  0
    4.9012   -0.5158   -0.3221 O   0  0  0  0  0  0
    5.7382   -2.1703    0.9636 O   0  0  0  0  0  0
    6.0002   -0.5206   -3.0801 C   0  0  0  0  0  0
    4.9174    0.0287   -2.9452 O   0  0  0  0  0  0
    6.2975   -1.2731   -4.1484 O   0  0  0  0  0  0
   10.2199    3.9331    2.4049 O   0  0  0  0  0  0
   10.4127    3.2327    3.5840 C   0  0  0  0  0  0
    9.9970    2.1014    3.7979 O   0  0  0  0  0  0
   11.2172    4.0353    4.6150 C   0  0  0  0  0  0
   10.5755    4.1529    6.0323 C   0  0  0  0  0  0
    9.3970    5.1268    6.2142 C   0  0  0  0  0  0
    9.4954    6.3379    5.3322 C   0  0  0  0  0  0
    9.9161    7.4354    5.6714 O   0  0  0  0  0  0
    9.0805    6.0954    4.0794 O   0  0  0  0  0  0
   10.1583    2.8155    6.6564 C   0  0  0  0  0  0
   10.7795    2.2840    7.5554 O   0  0  0  0  0  0
    8.9872    2.3105    6.2150 O   0  0  0  0  0  0
    2.8023    1.2216   -2.1594 H   0  0  0  0  0  0
    3.7975    0.2516   -1.3289 H   0  0  0  0  0  0
    3.1330   -3.1944   -0.2460 H   0  0  0  0  0  0
    3.7488    0.3379    0.5753 H   0  0  0  0  0  0
    5.5492    4.0088    6.2642 H   0  0  0  0  0  0
    5.0305   -1.9846    1.6103 H   0  0  0  0  0  0
    5.5914   -1.2993   -4.8409 H   0  0  0  0  0  0
    9.2057    6.9272    3.5756 H   0  0  0  0  0  0
    8.6330    1.5555    6.7353 H   0  0  0  0  0  0
  1  2  1  0  0  0
  2  3  1  0  0  0
  3  4  1  0  0  0
  4  5  1  0  0  0
  5  6  1  0  0  0
  5  7  1  0  0  0
  7  8  1  0  0  0
  7 39  1  0  0  0
  8  9  1  0  0  0
  8 27  1  0  0  0
  9 10  1  0  0  0
 10 11  1  0  0  0
 10 12  1  0  0  0
 12 13  1  0  0  0
 13 14  1  0  0  0
 13 26  1  0  0  0
 14 15  1  0  0  0
 15 16  1  0  0  0
 16 17  1  0  0  0
 17 18  1  0  0  0
 18 19  1  0  0  0
 18 25  1  0  0  0
 19 20  1  0  0  0
 20 21  1  0  0  0
 20 24  1  0  0  0
 21 22  1  0  0  0
 21 23  1  0  0  0
 23 51  1  0  0  0
 23 52  1  0  0  0
 24 53  1  0  0  0
 25 54  1  0  0  0
 26 55  1  0  0  0
 27 28  1  0  0  0
 28 29  2  0  0  0
 28 30  1  0  0  0
 30 31  1  0  0  0
 31 32  1  0  0  0
 31 36  1  0  0  0
 32 33  1  0  0  0
 33 34  2  0  0  0
 33 35  1  0  0  0
 35 56  1  0  0  0
 36 37  2  0  0  0
 36 38  1  0  0  0
 38 57  1  0  0  0
 39 40  1  0  0  0
 40 41  2  0  0  0
 40 42  1  0  0  0
 42 43  1  0  0  0
 43 44  1  0  0  0
 43 48  1  0  0  0
 44 45  1  0  0  0
 45 46  2  0  0  0
 45 47  1  0  0  0
 47 58  1  0  0  0
 48 49  2  0  0  0
 48 50  1  0  0  0
 50 59  1  0  0  0
M  END
>  <AUTHOR>
    GENERATED BY OPEN BABEL 2.4.1

>  <CHROM.1>
-67.17263668,-96.44464474,-65.52350460,172.96316676,173.67969773,-85.66138444
-173.71846897,80.03885111,8.42776173,100.66542333,108.76127625,-60.73353917
61.10148378,45.28892210,-178.45360971,141.96333973,-172.21324836,-172.07707451
128.74724171,-77.91520159,-85.00237964,61.65553320,-171.95789594,3.64071339
-164.69440891,51.75090133,45.72825057,-33.32205718,13.71211327,174.70271269
-178.67750753,-4.45536695,127.99130274,-75.80095564,-32.76766916,105.41161108
-98.38802615,-178.33020354,-168.36176359,6.97746301,1.67293396,1.84882360
-0.70506124,-0.42942983,-1.93360069

>  <COMPND>
    UNNAMED

>  <MASTER>
        0    0    0    0    0    0    0    0  109    0  109    0

>  <Name>
FB1.pdb

>  <RI>
0

>  <Rbt.Current_Directory>
/home/fc/tossine/FB1_39/p3/2_clust01

>  <Rbt.Executable>
rbdock/0.1.0

>  <Rbt.Library>
librxdock.so/0.1.0

>  <Rbt.Parameter_File>
/cluster/rxdock/data/scripts/dock.prm

>  <Rbt.Receptor>
rx_3.prm

>  <SCORE>
16.8313

>  <SCORE.INTER>
8.73588

>  <SCORE.INTER.CONST>
1

>  <SCORE.INTER.POLAR>
-2.43234

>  <SCORE.INTER.REPUL>
0.588848

>  <SCORE.INTER.ROT>
32

>  <SCORE.INTER.VDW>
-23.3384

>  <SCORE.INTER.norm>
0.174718

>  <SCORE.INTRA>
4.78585

>  <SCORE.INTRA.DIHEDRAL>
11.4517

>  <SCORE.INTRA.DIHEDRAL.0>
47.3121

>  <SCORE.INTRA.POLAR>
-0.676068

>  <SCORE.INTRA.POLAR.0>
-1.47808

>  <SCORE.INTRA.REPUL>
0.0481685

>  <SCORE.INTRA.REPUL.0>
0

>  <SCORE.INTRA.VDW>
1.11777

>  <SCORE.INTRA.VDW.0>
-2.78316

>  <SCORE.INTRA.norm>
0.0957171

>  <SCORE.RESTR>
3.30952

>  <SCORE.RESTR.CAVITY>
3.30952

>  <SCORE.RESTR.norm>
0.0661903

>  <SCORE.SYSTEM>
0

>  <SCORE.SYSTEM.CONST>
0

>  <SCORE.SYSTEM.DIHEDRAL>
0

>  <SCORE.SYSTEM.norm>
0

>  <SCORE.heavy>
50

>  <SCORE.norm>
0.336625

$$$$
