FB1.pdb
  RxDock  10072011433D
librxdock.so/0.1.0
 59 58  0  0  0  0  0  0  0  0999 V2000
  -12.5661    6.3865    4.7529 C   0  0  0  0  0  0
  -12.3335    5.4430    3.5752 C   0  0  0  0  0  0
  -11.7053    6.1727    2.3764 C   0  0  0  0  0  0
  -12.4876    7.4381    1.9446 C   0  0  0  0  0  0
  -12.0146    8.0794    0.5935 C   0  0  0  0  0  0
  -13.1497    8.9849    0.0622 C   0  0  0  0  0  0
  -10.6550    8.8879    0.7181 C   0  0  0  0  0  0
  -10.2099    9.7591   -0.5504 C   0  0  0  0  0  0
   -9.8176   11.2995   -0.5105 C   0  0  0  0  0  0
   -9.5141   11.9824   -1.9811 C   0  0  0  0  0  0
  -10.3410   13.2613   -2.1020 C   0  0  0  0  0  0
   -7.9852   12.3012   -2.3062 C   0  0  0  0  0  0
   -7.2779   11.9991   -3.7300 C   0  0  0  0  0  0
   -6.5181   13.1035   -4.5417 C   0  0  0  0  0  0
   -6.9048   14.6315   -4.2869 C   0  0  0  0  0  0
   -7.5738   15.5707   -5.3662 C   0  0  0  0  0  0
   -6.8331   15.8509   -6.7005 C   0  0  0  0  0  0
   -5.3977   16.4961   -6.5886 C   0  0  0  0  0  0
   -4.5691   16.5378   -7.8786 C   0  0  0  0  0  0
   -3.3339   17.4810   -7.9314 C   0  0  0  0  0  0
   -2.3082   17.5081   -6.7597 C   0  0  0  0  0  0
   -1.5574   16.2124   -6.4865 C   0  0  0  0  0  0
   -1.3723   18.6390   -6.9067 N   0  0  0  0  0  0
   -2.5762   17.0304   -9.0832 O   0  0  0  0  0  0
   -5.5516   17.8343   -6.1035 O   0  0  0  0  0  0
   -6.2890   10.9952   -3.4457 O   0  0  0  0  0  0
   -9.0361    9.1031   -1.1022 O   0  0  0  0  0  0
   -9.2231    7.8883   -1.6806 C   0  0  0  0  0  0
  -10.2264    7.2045   -1.6096 O   0  0  0  0  0  0
   -8.0140    7.5674   -2.5152 C   0  0  0  0  0  0
   -7.0120    6.6633   -1.7796 C   0  0  0  0  0  0
   -6.2601    5.7226   -2.7300 C   0  0  0  0  0  0
   -7.1888    4.6864   -3.3190 C   0  0  0  0  0  0
   -7.3202    3.5558   -2.8628 O   0  0  0  0  0  0
   -7.8622    5.1219   -4.3940 O   0  0  0  0  0  0
   -6.0224    7.6085   -1.0844 C   0  0  0  0  0  0
   -4.9102    7.8526   -1.5268 O   0  0  0  0  0  0
   -6.4602    8.1091    0.0791 O   0  0  0  0  0  0
  -10.6139    9.6762    1.9738 O   0  0  0  0  0  0
  -11.2774   10.8913    2.0112 C   0  0  0  0  0  0
  -12.0808   11.2722    1.1699 O   0  0  0  0  0  0
  -10.8954   11.7275    3.2397 C   0  0  0  0  0  0
  -11.2327   13.2485    3.1553 C   0  0  0  0  0  0
  -11.5924   13.9831    4.4597 C   0  0  0  0  0  0
  -10.4676   13.9974    5.4542 C   0  0  0  0  0  0
  -10.0232   14.9898    6.0146 O   0  0  0  0  0  0
   -9.9836   12.7701    5.6992 O   0  0  0  0  0  0
  -10.1778   14.0966    2.4341 C   0  0  0  0  0  0
   -9.3066   14.7067    3.0217 O   0  0  0  0  0  0
  -10.2105   14.0387    1.0862 O   0  0  0  0  0  0
   -1.8455   19.5011   -6.6395 H   0  0  0  0  0  0
   -1.1535   18.7552   -7.8987 H   0  0  0  0  0  0
   -2.4520   16.0690   -8.9360 H   0  0  0  0  0  0
   -5.9544   18.3701   -6.8114 H   0  0  0  0  0  0
   -5.7934   10.8213   -4.2634 H   0  0  0  0  0  0
   -8.4524    4.4647   -4.8103 H   0  0  0  0  0  0
   -7.2690    7.6663    0.4376 H   0  0  0  0  0  0
   -9.3221   12.8666    6.4164 H   0  0  0  0  0  0
  -10.9351   13.4934    0.7070 H   0  0  0  0  0  0
  1  2  1  0  0  0
  2  3  1  0  0  0
  3  4  1  0  0  0
  4  5  1  0  0  0
  5  6  1  0  0  0
  5  7  1  0  0  0
  7  8  1  0  0  0
  7 39  1  0  0  0
  8  9  1  0  0  0
  8 27  1  0  0  0
  9 10  1  0  0  0
 10 11  1  0  0  0
 10 12  1  0  0  0
 12 13  1  0  0  0
 13 14  1  0  0  0
 13 26  1  0  0  0
 14 15  1  0  0  0
 15 16  1  0  0  0
 16 17  1  0  0  0
 17 18  1  0  0  0
 18 19  1  0  0  0
 18 25  1  0  0  0
 19 20  1  0  0  0
 20 21  1  0  0  0
 20 24  1  0  0  0
 21 22  1  0  0  0
 21 23  1  0  0  0
 23 51  1  0  0  0
 23 52  1  0  0  0
 24 53  1  0  0  0
 25 54  1  0  0  0
 26 55  1  0  0  0
 27 28  1  0  0  0
 28 29  2  0  0  0
 28 30  1  0  0  0
 30 31  1  0  0  0
 31 32  1  0  0  0
 31 36  1  0  0  0
 32 33  1  0  0  0
 33 34  2  0  0  0
 33 35  1  0  0  0
 35 56  1  0  0  0
 36 37  2  0  0  0
 36 38  1  0  0  0
 38 57  1  0  0  0
 39 40  1  0  0  0
 40 41  2  0  0  0
 40 42  1  0  0  0
 42 43  1  0  0  0
 43 44  1  0  0  0
 43 48  1  0  0  0
 44 45  1  0  0  0
 45 46  2  0  0  0
 45 47  1  0  0  0
 47 58  1  0  0  0
 48 49  2  0  0  0
 48 50  1  0  0  0
 50 59  1  0  0  0
M  END
>  <AUTHOR>
    GENERATED BY OPEN BABEL 2.4.1

>  <CHROM.1>
-52.86316981,-170.70789859,160.70115485,-171.01495638,127.74170142,-80.66237268
-175.31807406,68.43933904,129.03541233,136.64084063,125.95984683,-23.94374864
-176.27723831,-114.40624800,-60.22175813,-58.11991364,169.31089621,163.87152816
-70.68446835,46.97139495,62.45181499,-53.03798314,76.20012476,-11.80712093
97.27781432,147.78765602,-68.02435741,-100.92584821,-96.11756998,178.41131309
12.40980801,12.77927455,161.98198880,148.24701245,62.75003831,-96.19729805
128.20485000,-174.56792468,2.86667533,-8.32658547,11.35130839,-1.30017922
2.69176368,-0.97464187,-2.96344639

>  <COMPND>
    UNNAMED

>  <MASTER>
        0    0    0    0    0    0    0    0  109    0  109    0

>  <Name>
FB1.pdb

>  <RI>
0

>  <Rbt.Current_Directory>
/home/fc/tossine/FB1_39/p3/2_clust01

>  <Rbt.Executable>
rbdock/0.1.0

>  <Rbt.Library>
librxdock.so/0.1.0

>  <Rbt.Parameter_File>
/cluster/rxdock/data/scripts/dock.prm

>  <Rbt.Receptor>
rx_1.prm

>  <SCORE>
24.1653

>  <SCORE.INTER>
8.32448

>  <SCORE.INTER.CONST>
1

>  <SCORE.INTER.POLAR>
-1.97987

>  <SCORE.INTER.REPUL>
1.41153

>  <SCORE.INTER.ROT>
32

>  <SCORE.INTER.VDW>
-29.4016

>  <SCORE.INTER.norm>
0.16649

>  <SCORE.INTRA>
13.085

>  <SCORE.INTRA.DIHEDRAL>
14.679

>  <SCORE.INTRA.DIHEDRAL.0>
47.3121

>  <SCORE.INTRA.POLAR>
1.47808

>  <SCORE.INTRA.POLAR.0>
-1.47808

>  <SCORE.INTRA.REPUL>
0

>  <SCORE.INTRA.REPUL.0>
0

>  <SCORE.INTRA.VDW>
0.720017

>  <SCORE.INTRA.VDW.0>
-2.78316

>  <SCORE.INTRA.norm>
0.2617

>  <SCORE.RESTR>
2.75581

>  <SCORE.RESTR.CAVITY>
2.75581

>  <SCORE.RESTR.norm>
0.0551163

>  <SCORE.SYSTEM>
0

>  <SCORE.SYSTEM.CONST>
0

>  <SCORE.SYSTEM.DIHEDRAL>
0

>  <SCORE.SYSTEM.norm>
0

>  <SCORE.heavy>
50

>  <SCORE.norm>
0.483306

$$$$
