FB1.pdb
  RxDock  10072012413D
librxdock.so/0.1.0
 59 58  0  0  0  0  0  0  0  0999 V2000
  -10.2858    4.2056    1.8159 C   0  0  0  0  0  0
  -10.9856    5.1926    0.8846 C   0  0  0  0  0  0
  -10.5724    4.9829   -0.5816 C   0  0  0  0  0  0
   -9.1017    5.3741   -0.8708 C   0  0  0  0  0  0
   -8.7063    5.3852   -2.3887 C   0  0  0  0  0  0
   -9.4185    6.5780   -3.0673 C   0  0  0  0  0  0
   -7.1398    5.4451   -2.6345 C   0  0  0  0  0  0
   -6.3279    6.5921   -1.8656 C   0  0  0  0  0  0
   -4.7684    6.8652   -2.0132 C   0  0  0  0  0  0
   -3.7943    5.6021   -1.5926 C   0  0  0  0  0  0
   -4.1803    5.1382   -0.1890 C   0  0  0  0  0  0
   -3.7921    4.3544   -2.5866 C   0  0  0  0  0  0
   -2.6857    3.1738   -2.5589 C   0  0  0  0  0  0
   -2.0162    2.6808   -1.2305 C   0  0  0  0  0  0
   -0.9987    1.4528   -1.3055 C   0  0  0  0  0  0
    0.3848    1.4903   -2.0665 C   0  0  0  0  0  0
    1.5814    0.6686   -1.5185 C   0  0  0  0  0  0
    2.0744    1.0250   -0.0628 C   0  0  0  0  0  0
    3.2630    0.2147    0.4694 C   0  0  0  0  0  0
    4.3841   -0.1920   -0.5285 C   0  0  0  0  0  0
    5.1977    0.8954   -1.2908 C   0  0  0  0  0  0
    5.8586    1.9692   -0.4377 C   0  0  0  0  0  0
    6.1734    0.2755   -2.2074 N   0  0  0  0  0  0
    5.3615   -0.8928    0.2823 O   0  0  0  0  0  0
    2.4248    2.4130   -0.0426 O   0  0  0  0  0  0
   -3.3620    2.0211   -3.0885 O   0  0  0  0  0  0
   -6.9506    7.8510   -2.2395 O   0  0  0  0  0  0
   -7.1046    8.7783   -1.2588 C   0  0  0  0  0  0
   -7.0206    9.9846   -1.3897 O   0  0  0  0  0  0
   -7.4996    8.0704    0.0078 C   0  0  0  0  0  0
   -8.5428    8.8533    0.8209 C   0  0  0  0  0  0
   -8.0881   10.2832    1.1403 C   0  0  0  0  0  0
   -6.7078   10.2917    1.7553 C   0  0  0  0  0  0
   -5.6890    9.9980    1.1393 O   0  0  0  0  0  0
   -6.7003   10.6546    3.0464 O   0  0  0  0  0  0
   -9.8120    8.8861   -0.0416 C   0  0  0  0  0  0
  -10.7990    8.2072    0.1980 O   0  0  0  0  0  0
   -9.7320    9.6871   -1.1131 O   0  0  0  0  0  0
   -6.5182    4.1105   -2.4548 O   0  0  0  0  0  0
   -7.0335    3.0418   -3.1693 C   0  0  0  0  0  0
   -7.7267    3.1447   -4.1729 O   0  0  0  0  0  0
   -6.6381    1.6890   -2.5628 C   0  0  0  0  0  0
   -6.9836    1.4965   -1.0534 C   0  0  0  0  0  0
   -7.0007    0.0628   -0.4924 C   0  0  0  0  0  0
   -7.4996   -0.0077    0.9220 C   0  0  0  0  0  0
   -6.9791   -0.6388    1.8316 O   0  0  0  0  0  0
   -8.6043    0.7293    1.1138 O   0  0  0  0  0  0
   -6.1442    2.3485   -0.0934 C   0  0  0  0  0  0
   -4.9294    2.3692   -0.1191 O   0  0  0  0  0  0
   -6.8455    3.1648    0.7210 O   0  0  0  0  0  0
    7.0646    0.1694   -1.7247 H   0  0  0  0  0  0
    6.3637    0.9276   -2.9716 H   0  0  0  0  0  0
    6.0691   -1.1452   -0.3477 H   0  0  0  0  0  0
    1.6120    2.9297    0.1091 H   0  0  0  0  0  0
   -2.7044    1.4699   -3.5449 H   0  0  0  0  0  0
   -7.4798   11.1639    3.3406 H   0  0  0  0  0  0
   -9.9983    9.2603   -1.9649 H   0  0  0  0  0  0
   -8.7870    0.7168    2.0770 H   0  0  0  0  0  0
   -7.8230    3.0897    0.6499 H   0  0  0  0  0  0
  1  2  1  0  0  0
  2  3  1  0  0  0
  3  4  1  0  0  0
  4  5  1  0  0  0
  5  6  1  0  0  0
  5  7  1  0  0  0
  7  8  1  0  0  0
  7 39  1  0  0  0
  8  9  1  0  0  0
  8 27  1  0  0  0
  9 10  1  0  0  0
 10 11  1  0  0  0
 10 12  1  0  0  0
 12 13  1  0  0  0
 13 14  1  0  0  0
 13 26  1  0  0  0
 14 15  1  0  0  0
 15 16  1  0  0  0
 16 17  1  0  0  0
 17 18  1  0  0  0
 18 19  1  0  0  0
 18 25  1  0  0  0
 19 20  1  0  0  0
 20 21  1  0  0  0
 20 24  1  0  0  0
 21 22  1  0  0  0
 21 23  1  0  0  0
 23 51  1  0  0  0
 23 52  1  0  0  0
 24 53  1  0  0  0
 25 54  1  0  0  0
 26 55  1  0  0  0
 27 28  1  0  0  0
 28 29  2  0  0  0
 28 30  1  0  0  0
 30 31  1  0  0  0
 31 32  1  0  0  0
 31 36  1  0  0  0
 32 33  1  0  0  0
 33 34  2  0  0  0
 33 35  1  0  0  0
 35 56  1  0  0  0
 36 37  2  0  0  0
 36 38  1  0  0  0
 38 57  1  0  0  0
 39 40  1  0  0  0
 40 41  2  0  0  0
 40 42  1  0  0  0
 42 43  1  0  0  0
 43 44  1  0  0  0
 43 48  1  0  0  0
 44 45  1  0  0  0
 45 46  2  0  0  0
 45 47  1  0  0  0
 47 58  1  0  0  0
 48 49  2  0  0  0
 48 50  1  0  0  0
 50 59  1  0  0  0
M  END
>  <AUTHOR>
    GENERATED BY OPEN BABEL 2.4.1

>  <CHROM.1>
-68.97615957,-171.01454777,70.10083530,-51.17701135,-177.47252823,53.46571412
-59.98233450,139.54446899,-52.74263857,165.50983535,33.57997643,176.53672988
149.13207833,64.91437140,147.24998747,-60.28358248,-179.64025550,36.32515610
84.06433659,60.38161413,53.64125430,-179.78245122,-92.31457936,145.01668738
-141.45362458,-55.03233372,-51.15030114,105.77570855,68.79353139,-21.15812240
129.40780255,19.22100913,54.25590252,162.45022352,-173.30850333,-52.02672573
-133.92865725,-172.84303661,3.39285184,-4.75175037,4.31397056,-0.74336026
2.62886619,0.00411028,0.08013021

>  <COMPND>
    UNNAMED

>  <MASTER>
        0    0    0    0    0    0    0    0  109    0  109    0

>  <Name>
FB1.pdb

>  <RI>
0

>  <Rbt.Current_Directory>
/home/fc/tossine/FB1_39/p3/2_clust01

>  <Rbt.Executable>
rbdock/0.1.0

>  <Rbt.Library>
librxdock.so/0.1.0

>  <Rbt.Parameter_File>
/cluster/rxdock/data/scripts/dock.prm

>  <Rbt.Receptor>
rx_2.prm

>  <SCORE>
18.7244

>  <SCORE.INTER>
3.30583

>  <SCORE.INTER.CONST>
1

>  <SCORE.INTER.POLAR>
-3.11941

>  <SCORE.INTER.REPUL>
0.420681

>  <SCORE.INTER.ROT>
32

>  <SCORE.INTER.VDW>
-25.5916

>  <SCORE.INTER.norm>
0.0661165

>  <SCORE.INTRA>
13.3226

>  <SCORE.INTRA.DIHEDRAL>
18.8925

>  <SCORE.INTRA.DIHEDRAL.0>
47.3121

>  <SCORE.INTRA.POLAR>
1.40664

>  <SCORE.INTRA.POLAR.0>
-1.47808

>  <SCORE.INTRA.REPUL>
0.00774033

>  <SCORE.INTRA.REPUL.0>
0

>  <SCORE.INTRA.VDW>
-0.944982

>  <SCORE.INTRA.VDW.0>
-2.78316

>  <SCORE.INTRA.norm>
0.266451

>  <SCORE.RESTR>
2.09604

>  <SCORE.RESTR.CAVITY>
2.09604

>  <SCORE.RESTR.norm>
0.0419208

>  <SCORE.SYSTEM>
0

>  <SCORE.SYSTEM.CONST>
0

>  <SCORE.SYSTEM.DIHEDRAL>
0

>  <SCORE.SYSTEM.norm>
0

>  <SCORE.heavy>
50

>  <SCORE.norm>
0.374489

$$$$
