FB1.pdb
  RxDock  10072010553D
librxdock.so/0.1.0
 59 58  0  0  0  0  0  0  0  0999 V2000
    9.3390    2.5579    4.9371 C   0  0  0  0  0  0
    9.2061    2.1303    3.4773 C   0  0  0  0  0  0
    7.7374    1.9067    3.0809 C   0  0  0  0  0  0
    7.5499    1.5383    1.5880 C   0  0  0  0  0  0
    6.2455    0.7291    1.2651 C   0  0  0  0  0  0
    6.3485   -0.6522    1.9521 C   0  0  0  0  0  0
    4.9135    1.4779    1.6930 C   0  0  0  0  0  0
    3.5316    0.7175    1.4129 C   0  0  0  0  0  0
    2.1606    1.4240    1.0263 C   0  0  0  0  0  0
    1.0770    1.5713    2.2614 C   0  0  0  0  0  0
    1.4740    2.7754    3.1139 C   0  0  0  0  0  0
   -0.4565    1.6965    1.8401 C   0  0  0  0  0  0
   -1.1272    3.0436    1.2450 C   0  0  0  0  0  0
   -2.5651    3.0616    0.6219 C   0  0  0  0  0  0
   -2.7017    3.0292   -0.9686 C   0  0  0  0  0  0
   -4.0732    3.1335   -1.7450 C   0  0  0  0  0  0
   -4.9061    4.4394   -1.6536 C   0  0  0  0  0  0
   -6.2747    4.4597   -2.4383 C   0  0  0  0  0  0
   -7.0327    5.7930   -2.4477 C   0  0  0  0  0  0
   -7.3718    6.4580   -1.0834 C   0  0  0  0  0  0
   -6.2980    7.2870   -0.3185 C   0  0  0  0  0  0
   -5.5369    8.3245   -1.1320 C   0  0  0  0  0  0
   -6.8693    7.8887    0.9013 N   0  0  0  0  0  0
   -8.4291    7.4031   -1.3879 O   0  0  0  0  0  0
   -6.0131    4.0758   -3.7925 O   0  0  0  0  0  0
   -1.1901    3.9488    2.3599 O   0  0  0  0  0  0
    3.7872   -0.1981    0.3135 O   0  0  0  0  0  0
    3.9387    0.3477   -0.9212 C   0  0  0  0  0  0
    4.9383    0.8929   -1.3491 O   0  0  0  0  0  0
    2.6922    0.0767   -1.7176 C   0  0  0  0  0  0
    2.9833   -0.6477   -3.0416 C   0  0  0  0  0  0
    3.5000   -2.0765   -2.8296 C   0  0  0  0  0  0
    2.4830   -2.9208   -2.0974 C   0  0  0  0  0  0
    2.0149   -3.9611   -2.5474 O   0  0  0  0  0  0
    2.1387   -2.4241   -0.9001 O   0  0  0  0  0  0
    1.6532   -0.6782   -3.8071 C   0  0  0  0  0  0
    0.5807   -0.4015   -3.2918 O   0  0  0  0  0  0
    1.7571   -1.0829   -5.0804 O   0  0  0  0  0  0
    5.0016    1.9714    3.0889 O   0  0  0  0  0  0
    4.4906    3.2258    3.3779 C   0  0  0  0  0  0
    4.2082    4.0726    2.5403 O   0  0  0  0  0  0
    4.3102    3.4496    4.8851 C   0  0  0  0  0  0
    4.7038    2.2487    5.8002 C   0  0  0  0  0  0
    4.3048    2.3102    7.2859 C   0  0  0  0  0  0
    4.8468    3.5209    7.9892 C   0  0  0  0  0  0
    4.1783    4.4246    8.4721 O   0  0  0  0  0  0
    6.1866    3.5157    8.0613 O   0  0  0  0  0  0
    4.2712    0.8756    5.2714 C   0  0  0  0  0  0
    4.9786   -0.1103    5.3377 O   0  0  0  0  0  0
    3.0019    0.8025    4.8190 O   0  0  0  0  0  0
   -7.6350    7.3048    1.2348 H   0  0  0  0  0  0
   -7.3061    8.7791    0.6525 H   0  0  0  0  0  0
   -9.2084    6.8442   -1.5920 H   0  0  0  0  0  0
   -6.8514    4.1192   -4.2884 H   0  0  0  0  0  0
   -1.5177    4.8041    2.0348 H   0  0  0  0  0  0
    1.4696   -2.9409   -0.4114 H   0  0  0  0  0  0
    0.9023   -1.0934   -5.5784 H   0  0  0  0  0  0
    6.4510    4.3774    8.4470 H   0  0  0  0  0  0
    2.6954   -0.0983    4.5723 H   0  0  0  0  0  0
  1  2  1  0  0  0
  2  3  1  0  0  0
  3  4  1  0  0  0
  4  5  1  0  0  0
  5  6  1  0  0  0
  5  7  1  0  0  0
  7  8  1  0  0  0
  7 39  1  0  0  0
  8  9  1  0  0  0
  8 27  1  0  0  0
  9 10  1  0  0  0
 10 11  1  0  0  0
 10 12  1  0  0  0
 12 13  1  0  0  0
 13 14  1  0  0  0
 13 26  1  0  0  0
 14 15  1  0  0  0
 15 16  1  0  0  0
 16 17  1  0  0  0
 17 18  1  0  0  0
 18 19  1  0  0  0
 18 25  1  0  0  0
 19 20  1  0  0  0
 20 21  1  0  0  0
 20 24  1  0  0  0
 21 22  1  0  0  0
 21 23  1  0  0  0
 23 51  1  0  0  0
 23 52  1  0  0  0
 24 53  1  0  0  0
 25 54  1  0  0  0
 26 55  1  0  0  0
 27 28  1  0  0  0
 28 29  2  0  0  0
 28 30  1  0  0  0
 30 31  1  0  0  0
 31 32  1  0  0  0
 31 36  1  0  0  0
 32 33  1  0  0  0
 33 34  2  0  0  0
 33 35  1  0  0  0
 35 56  1  0  0  0
 36 37  2  0  0  0
 36 38  1  0  0  0
 38 57  1  0  0  0
 39 40  1  0  0  0
 40 41  2  0  0  0
 40 42  1  0  0  0
 42 43  1  0  0  0
 43 44  1  0  0  0
 43 48  1  0  0  0
 44 45  1  0  0  0
 45 46  2  0  0  0
 45 47  1  0  0  0
 47 58  1  0  0  0
 48 49  2  0  0  0
 48 50  1  0  0  0
 50 59  1  0  0  0
M  END
>  <AUTHOR>
    GENERATED BY OPEN BABEL 2.4.1

>  <CHROM.1>
177.18134130,155.10177084,-65.55131478,-179.44384727,-146.38348879,139.27662683
-101.63039175,-72.66147413,80.33204857,-76.30333163,169.51072563,-100.12754113
175.22924219,-175.99600396,64.73123155,-179.09153189,-174.72919367,-55.09223122
-177.93393580,80.74134196,48.35605150,70.22036861,28.04397578,78.73259388
-124.26958223,67.08825915,60.81890312,-12.51901737,121.95915475,178.88903258
-179.33718189,-15.15389744,-0.85586524,-168.85633693,-57.35182920,139.12896454
115.69247061,174.23822719,-173.62333177,1.46815214,2.16304653,1.10588461
0.16997803,-0.49265720,0.96189566

>  <COMPND>
    UNNAMED

>  <MASTER>
        0    0    0    0    0    0    0    0  109    0  109    0

>  <Name>
FB1.pdb

>  <RI>
0

>  <Rbt.Current_Directory>
/home/fc/tossine/FB1_39/p3/2_clust01

>  <Rbt.Executable>
rbdock/0.1.0

>  <Rbt.Library>
librxdock.so/0.1.0

>  <Rbt.Parameter_File>
/cluster/rxdock/data/scripts/dock.prm

>  <Rbt.Receptor>
rx_0.prm

>  <SCORE>
20.9587

>  <SCORE.INTER>
3.04624

>  <SCORE.INTER.CONST>
1

>  <SCORE.INTER.POLAR>
-1.75872

>  <SCORE.INTER.REPUL>
0.260553

>  <SCORE.INTER.ROT>
32

>  <SCORE.INTER.VDW>
-29.6769

>  <SCORE.INTER.norm>
0.0609248

>  <SCORE.INTRA>
16.6492

>  <SCORE.INTRA.DIHEDRAL>
17.7022

>  <SCORE.INTRA.DIHEDRAL.0>
47.3121

>  <SCORE.INTRA.POLAR>
1.47808

>  <SCORE.INTRA.POLAR.0>
-1.47808

>  <SCORE.INTRA.REPUL>
0.365709

>  <SCORE.INTRA.REPUL.0>
0

>  <SCORE.INTRA.VDW>
0.944112

>  <SCORE.INTRA.VDW.0>
-2.78316

>  <SCORE.INTRA.norm>
0.332985

>  <SCORE.RESTR>
1.26326

>  <SCORE.RESTR.CAVITY>
1.26326

>  <SCORE.RESTR.norm>
0.0252652

>  <SCORE.SYSTEM>
0

>  <SCORE.SYSTEM.CONST>
0

>  <SCORE.SYSTEM.DIHEDRAL>
0

>  <SCORE.SYSTEM.norm>
0

>  <SCORE.heavy>
50

>  <SCORE.norm>
0.419175

$$$$
