FB1.pdb
  RxDock  09132009063D
librxdock.so/0.1.0
 59 58  0  0  0  0  0  0  0  0999 V2000
    1.0265   -4.4739   -0.9435 C   0  0  0  0  0  0
    2.2644   -4.1055   -1.7578 C   0  0  0  0  0  0
    2.5732   -2.6015   -1.6756 C   0  0  0  0  0  0
    1.8859   -1.7684   -2.7862 C   0  0  0  0  0  0
    2.2302   -0.2381   -2.7741 C   0  0  0  0  0  0
    1.9286    0.3385   -4.1767 C   0  0  0  0  0  0
    1.4615    0.5750   -1.6490 C   0  0  0  0  0  0
    2.3250    1.0716   -0.3944 C   0  0  0  0  0  0
    2.0511    0.6729    1.1203 C   0  0  0  0  0  0
    3.2800    1.0142    2.1666 C   0  0  0  0  0  0
    3.2265    2.5022    2.5089 C   0  0  0  0  0  0
    3.3169    0.1570    3.5114 C   0  0  0  0  0  0
    4.5872    0.0918    4.5117 C   0  0  0  0  0  0
    5.0455    1.3213    5.3688 C   0  0  0  0  0  0
    6.0740    2.3558    4.7197 C   0  0  0  0  0  0
    6.9329    2.0624    3.4272 C   0  0  0  0  0  0
    7.6159    3.2382    2.6799 C   0  0  0  0  0  0
    8.8782    3.8788    3.3765 C   0  0  0  0  0  0
    8.8168    4.0128    4.9032 C   0  0  0  0  0  0
    9.8635    4.9231    5.6061 C   0  0  0  0  0  0
    9.8254    6.4680    5.4129 C   0  0  0  0  0  0
   10.6957    7.2900    6.3532 C   0  0  0  0  0  0
   10.0832    6.8282    4.0057 N   0  0  0  0  0  0
    9.6374    4.7163    7.0238 O   0  0  0  0  0  0
   10.0207    3.0864    3.0351 O   0  0  0  0  0  0
    4.2528   -0.9283    5.4678 O   0  0  0  0  0  0
    3.6888    0.6334   -0.6408 O   0  0  0  0  0  0
    4.6710    1.5594   -0.4894 C   0  0  0  0  0  0
    4.6327    2.7165   -0.8625 O   0  0  0  0  0  0
    5.7853    0.9447    0.3118 C   0  0  0  0  0  0
    6.3902   -0.2925   -0.3706 C   0  0  0  0  0  0
    7.6435    0.0410   -1.1901 C   0  0  0  0  0  0
    7.8615   -0.9725   -2.2895 C   0  0  0  0  0  0
    7.0086   -1.2662   -3.1201 O   0  0  0  0  0  0
    9.0842   -1.5236   -2.2734 O   0  0  0  0  0  0
    6.7463   -1.2666    0.7609 C   0  0  0  0  0  0
    7.8368   -1.8092    0.8553 O   0  0  0  0  0  0
    5.7430   -1.5135    1.6143 O   0  0  0  0  0  0
    0.6566    1.6731   -2.2373 O   0  0  0  0  0  0
   -0.5994    1.3742   -2.7386 C   0  0  0  0  0  0
   -0.9974    0.2446   -2.9916 O   0  0  0  0  0  0
   -1.4582    2.6283   -2.9477 C   0  0  0  0  0  0
   -2.6729    2.7864   -1.9813 C   0  0  0  0  0  0
   -2.5175    3.7264   -0.7718 C   0  0  0  0  0  0
   -3.6279    3.5834    0.2287 C   0  0  0  0  0  0
   -4.7521    3.1631   -0.0081 O   0  0  0  0  0  0
   -3.2572    3.9558    1.4633 O   0  0  0  0  0  0
   -3.9935    3.1505   -2.6711 C   0  0  0  0  0  0
   -5.0144    2.5081   -2.5237 O   0  0  0  0  0  0
   -3.9810    4.3013   -3.3758 O   0  0  0  0  0  0
    9.9153    7.8254    3.8800 H   0  0  0  0  0  0
    9.3854    6.3673    3.4175 H   0  0  0  0  0  0
    8.7375    5.0711    7.1844 H   0  0  0  0  0  0
   10.8104    3.5099    3.4193 H   0  0  0  0  0  0
    5.0291   -1.0763    6.0335 H   0  0  0  0  0  0
    9.2764   -2.1325   -3.0122 H   0  0  0  0  0  0
    5.9678   -2.1487    2.3387 H   0  0  0  0  0  0
   -2.6331    4.7043    1.3559 H   0  0  0  0  0  0
   -3.1077    4.7489   -3.4331 H   0  0  0  0  0  0
  1  2  1  0  0  0
  2  3  1  0  0  0
  3  4  1  0  0  0
  4  5  1  0  0  0
  5  6  1  0  0  0
  5  7  1  0  0  0
  7  8  1  0  0  0
  7 39  1  0  0  0
  8  9  1  0  0  0
  8 27  1  0  0  0
  9 10  1  0  0  0
 10 11  1  0  0  0
 10 12  1  0  0  0
 12 13  1  0  0  0
 13 14  1  0  0  0
 13 26  1  0  0  0
 14 15  1  0  0  0
 15 16  1  0  0  0
 16 17  1  0  0  0
 17 18  1  0  0  0
 18 19  1  0  0  0
 18 25  1  0  0  0
 19 20  1  0  0  0
 20 21  1  0  0  0
 20 24  1  0  0  0
 21 22  1  0  0  0
 21 23  1  0  0  0
 23 51  1  0  0  0
 23 52  1  0  0  0
 24 53  1  0  0  0
 25 54  1  0  0  0
 26 55  1  0  0  0
 27 28  1  0  0  0
 28 29  2  0  0  0
 28 30  1  0  0  0
 30 31  1  0  0  0
 31 32  1  0  0  0
 31 36  1  0  0  0
 32 33  1  0  0  0
 33 34  2  0  0  0
 33 35  1  0  0  0
 35 56  1  0  0  0
 36 37  2  0  0  0
 36 38  1  0  0  0
 38 57  1  0  0  0
 39 40  1  0  0  0
 40 41  2  0  0  0
 40 42  1  0  0  0
 42 43  1  0  0  0
 43 44  1  0  0  0
 43 48  1  0  0  0
 44 45  1  0  0  0
 45 46  2  0  0  0
 45 47  1  0  0  0
 47 58  1  0  0  0
 48 49  2  0  0  0
 48 50  1  0  0  0
 50 59  1  0  0  0
M  END
>  <AUTHOR>
    GENERATED BY OPEN BABEL 2.4.1

>  <CHROM.1>
-90.31921493,-177.33041733,159.24241909,107.51195639,-120.47147959,83.01683100
165.91599687,131.01807193,79.30644110,166.08163824,68.65217748,-87.99764610
173.71079542,-15.55647551,164.46558345,73.42667703,-38.34922663,-165.95434140
176.62130373,68.59582429,167.83912274,-65.00082692,171.59746354,-42.10826761
60.20717957,95.68408942,-155.11319703,-130.62236087,53.88162737,-175.61028864
179.37426932,-15.95185269,-110.72289336,99.51751691,-168.14594803,126.08994727
-24.11442014,34.87238597,4.69992240,3.71482543,1.46604220,0.63763733,-2.71042349
-0.31530514,0.70406054

>  <COMPND>
    UNNAMED

>  <MASTER>
        0    0    0    0    0    0    0    0  109    0  109    0

>  <Name>
FB1.pdb

>  <RI>
0

>  <Rbt.Current_Directory>
/home/fc/tossine/FB1_39/p3/2_clust01

>  <Rbt.Executable>
rbdock/0.1.0

>  <Rbt.Library>
librxdock.so/0.1.0

>  <Rbt.Parameter_File>
/cluster/rxdock/data/scripts/dock.prm

>  <Rbt.Receptor>
rx_3.prm

>  <SCORE>
27.1731

>  <SCORE.INTER>
3.91022

>  <SCORE.INTER.CONST>
1

>  <SCORE.INTER.POLAR>
-4.13577

>  <SCORE.INTER.REPUL>
1.99393

>  <SCORE.INTER.ROT>
32

>  <SCORE.INTER.VDW>
-29.3978

>  <SCORE.INTER.norm>
0.0782043

>  <SCORE.INTRA>
20.8326

>  <SCORE.INTRA.DIHEDRAL>
33.6492

>  <SCORE.INTRA.DIHEDRAL.0>
47.3121

>  <SCORE.INTRA.POLAR>
1.47808

>  <SCORE.INTRA.POLAR.0>
-1.47808

>  <SCORE.INTRA.REPUL>
0.00710989

>  <SCORE.INTRA.REPUL.0>
0

>  <SCORE.INTRA.VDW>
-1.05294

>  <SCORE.INTRA.VDW.0>
-2.78316

>  <SCORE.INTRA.norm>
0.416653

>  <SCORE.RESTR>
2.43027

>  <SCORE.RESTR.CAVITY>
2.43027

>  <SCORE.RESTR.norm>
0.0486053

>  <SCORE.SYSTEM>
0

>  <SCORE.SYSTEM.CONST>
0

>  <SCORE.SYSTEM.DIHEDRAL>
0

>  <SCORE.SYSTEM.norm>
0

>  <SCORE.heavy>
50

>  <SCORE.norm>
0.543462

$$$$
