FB1.pdb
  RxDock  10072012413D
librxdock.so/0.1.0
 59 58  0  0  0  0  0  0  0  0999 V2000
    9.4647    1.3907    8.4318 C   0  0  0  0  0  0
    9.2943    2.7400    7.7377 C   0  0  0  0  0  0
   10.5256    3.1048    6.8922 C   0  0  0  0  0  0
   10.4495    2.5860    5.4345 C   0  0  0  0  0  0
    9.3229    3.2370    4.5585 C   0  0  0  0  0  0
    9.7967    4.6435    4.1252 C   0  0  0  0  0  0
    8.9154    2.3624    3.2988 C   0  0  0  0  0  0
   10.0909    1.9462    2.2933 C   0  0  0  0  0  0
    9.9646    0.8630    1.1362 C   0  0  0  0  0  0
    8.4200    0.4475    0.7326 C   0  0  0  0  0  0
    7.7690    1.6325    0.0212 C   0  0  0  0  0  0
    8.2549   -0.8666   -0.1566 C   0  0  0  0  0  0
    7.0217   -1.9055   -0.0205 C   0  0  0  0  0  0
    5.5297   -1.4326    0.0591 C   0  0  0  0  0  0
    4.4637   -2.4018    0.7473 C   0  0  0  0  0  0
    4.2670   -2.5409    2.3082 C   0  0  0  0  0  0
    3.5671   -1.4015    3.0952 C   0  0  0  0  0  0
    2.1623   -0.9297    2.5538 C   0  0  0  0  0  0
    2.1466   -0.3188    1.1471 C   0  0  0  0  0  0
    2.7496    1.1014    0.9532 C   0  0  0  0  0  0
    3.2745    1.5547   -0.4413 C   0  0  0  0  0  0
    4.6821    2.1330   -0.4801 C   0  0  0  0  0  0
    3.1195    0.4771   -1.4368 N   0  0  0  0  0  0
    1.6592    2.0084    1.2569 O   0  0  0  0  0  0
    1.2812   -2.0581    2.5695 O   0  0  0  0  0  0
    7.0941   -2.7217   -1.2017 O   0  0  0  0  0  0
   10.4869    3.1635    1.6050 O   0  0  0  0  0  0
   11.8186    3.3708    1.4352 C   0  0  0  0  0  0
   12.6713    3.3162    2.3008 O   0  0  0  0  0  0
   12.0845    3.5816   -0.0298 C   0  0  0  0  0  0
   11.3421    2.5688   -0.9162 C   0  0  0  0  0  0
   10.6825    3.2260   -2.1354 C   0  0  0  0  0  0
    9.2186    2.8625   -2.2253 C   0  0  0  0  0  0
    8.3090    3.6754   -2.1011 O   0  0  0  0  0  0
    9.0050    1.5588   -2.4569 O   0  0  0  0  0  0
   12.3991    1.5544   -1.3740 C   0  0  0  0  0  0
   12.2485    0.3457   -1.2797 O   0  0  0  0  0  0
   13.5275    2.1048   -1.8427 O   0  0  0  0  0  0
    8.0909    1.1967    3.7005 O   0  0  0  0  0  0
    6.8950    0.9757    3.0379 C   0  0  0  0  0  0
    6.4426   -0.1291    2.7673 O   0  0  0  0  0  0
    6.1805    2.2831    2.6710 C   0  0  0  0  0  0
    6.0449    3.3271    3.8226 C   0  0  0  0  0  0
    5.3213    4.6513    3.5169 C   0  0  0  0  0  0
    3.8264    4.5123    3.4991 C   0  0  0  0  0  0
    3.0305    5.3024    3.9879 O   0  0  0  0  0  0
    3.4214    3.4067    2.8557 O   0  0  0  0  0  0
    5.4436    2.7714    5.1195 C   0  0  0  0  0  0
    5.7124    3.2190    6.2168 O   0  0  0  0  0  0
    4.5060    1.8140    4.9598 O   0  0  0  0  0  0
    3.7446    0.6550   -2.2217 H   0  0  0  0  0  0
    2.1781    0.5307   -1.8323 H   0  0  0  0  0  0
    2.0517    2.9029    1.1728 H   0  0  0  0  0  0
    1.6896   -2.7702    2.0436 H   0  0  0  0  0  0
    6.4157   -3.4140   -1.1309 H   0  0  0  0  0  0
    9.8054    0.9994   -2.4591 H   0  0  0  0  0  0
   13.9685    2.7317   -1.2172 H   0  0  0  0  0  0
    2.4597    3.3189    3.0253 H   0  0  0  0  0  0
    4.1111    1.4703    5.7917 H   0  0  0  0  0  0
  1  2  1  0  0  0
  2  3  1  0  0  0
  3  4  1  0  0  0
  4  5  1  0  0  0
  5  6  1  0  0  0
  5  7  1  0  0  0
  7  8  1  0  0  0
  7 39  1  0  0  0
  8  9  1  0  0  0
  8 27  1  0  0  0
  9 10  1  0  0  0
 10 11  1  0  0  0
 10 12  1  0  0  0
 12 13  1  0  0  0
 13 14  1  0  0  0
 13 26  1  0  0  0
 14 15  1  0  0  0
 15 16  1  0  0  0
 16 17  1  0  0  0
 17 18  1  0  0  0
 18 19  1  0  0  0
 18 25  1  0  0  0
 19 20  1  0  0  0
 20 21  1  0  0  0
 20 24  1  0  0  0
 21 22  1  0  0  0
 21 23  1  0  0  0
 23 51  1  0  0  0
 23 52  1  0  0  0
 24 53  1  0  0  0
 25 54  1  0  0  0
 26 55  1  0  0  0
 27 28  1  0  0  0
 28 29  2  0  0  0
 28 30  1  0  0  0
 30 31  1  0  0  0
 31 32  1  0  0  0
 31 36  1  0  0  0
 32 33  1  0  0  0
 33 34  2  0  0  0
 33 35  1  0  0  0
 35 56  1  0  0  0
 36 37  2  0  0  0
 36 38  1  0  0  0
 38 57  1  0  0  0
 39 40  1  0  0  0
 40 41  2  0  0  0
 40 42  1  0  0  0
 42 43  1  0  0  0
 43 44  1  0  0  0
 43 48  1  0  0  0
 44 45  1  0  0  0
 45 46  2  0  0  0
 45 47  1  0  0  0
 47 58  1  0  0  0
 48 49  2  0  0  0
 48 50  1  0  0  0
 50 59  1  0  0  0
M  END
>  <AUTHOR>
    GENERATED BY OPEN BABEL 2.4.1

>  <CHROM.1>
89.30259051,66.03915384,77.35397271,-55.31919197,167.91442781,129.14289108
15.95416756,137.55809554,70.24410157,144.83265903,46.73219123,-156.29160180
175.29325548,80.13422928,73.59324924,52.39384692,-62.82754026,-72.34272301
-56.21438658,156.00637311,-128.73076025,177.57827455,-160.17042454,-50.98431502
-44.60550173,135.76472417,-127.33432952,129.91492234,114.55680224,5.19381715
55.34223264,143.86435659,-48.68712018,-179.27153594,78.09354694,151.00448217
137.80795638,170.52791453,-178.99946507,7.24059229,1.59087275,1.83744188
-0.08974390,0.27928196,1.18499906

>  <COMPND>
    UNNAMED

>  <MASTER>
        0    0    0    0    0    0    0    0  109    0  109    0

>  <Name>
FB1.pdb

>  <RI>
0

>  <Rbt.Current_Directory>
/home/fc/tossine/FB1_39/p3/2_clust01

>  <Rbt.Executable>
rbdock/0.1.0

>  <Rbt.Library>
librxdock.so/0.1.0

>  <Rbt.Parameter_File>
/cluster/rxdock/data/scripts/dock.prm

>  <Rbt.Receptor>
rx_2.prm

>  <SCORE>
43.7138

>  <SCORE.INTER>
12.5216

>  <SCORE.INTER.CONST>
1

>  <SCORE.INTER.POLAR>
-0.408742

>  <SCORE.INTER.REPUL>
0.373543

>  <SCORE.INTER.ROT>
32

>  <SCORE.INTER.VDW>
-25.3564

>  <SCORE.INTER.norm>
0.250432

>  <SCORE.INTRA>
28.5293

>  <SCORE.INTRA.DIHEDRAL>
52.385

>  <SCORE.INTRA.DIHEDRAL.0>
47.3121

>  <SCORE.INTRA.POLAR>
1.32223

>  <SCORE.INTRA.POLAR.0>
-1.47808

>  <SCORE.INTRA.REPUL>
0

>  <SCORE.INTRA.REPUL.0>
0

>  <SCORE.INTRA.VDW>
-2.1588

>  <SCORE.INTRA.VDW.0>
-2.78316

>  <SCORE.INTRA.norm>
0.570586

>  <SCORE.RESTR>
2.66288

>  <SCORE.RESTR.CAVITY>
2.66288

>  <SCORE.RESTR.norm>
0.0532575

>  <SCORE.SYSTEM>
0

>  <SCORE.SYSTEM.CONST>
0

>  <SCORE.SYSTEM.DIHEDRAL>
0

>  <SCORE.SYSTEM.norm>
0

>  <SCORE.heavy>
50

>  <SCORE.norm>
0.874276

$$$$
