FB1.pdb
  RxDock  10072012413D
librxdock.so/0.1.0
 59 58  0  0  0  0  0  0  0  0999 V2000
    7.3522   -1.5749   -0.7000 C   0  0  0  0  0  0
    7.8028   -1.1957    0.7087 C   0  0  0  0  0  0
    8.1715    0.2939    0.8069 C   0  0  0  0  0  0
    9.0144    0.6401    2.0596 C   0  0  0  0  0  0
    9.2715    2.1715    2.2815 C   0  0  0  0  0  0
    9.4054    2.8469    0.8971 C   0  0  0  0  0  0
    8.1520    2.8817    3.1534 C   0  0  0  0  0  0
    6.9394    1.9668    3.6624 C   0  0  0  0  0  0
    5.7225    2.4725    4.5521 C   0  0  0  0  0  0
    5.6360    1.8102    6.0604 C   0  0  0  0  0  0
    5.9400    2.9001    7.0870 C   0  0  0  0  0  0
    4.2622    1.0909    6.4348 C   0  0  0  0  0  0
    3.2572    0.4332    5.3505 C   0  0  0  0  0  0
    3.7572   -0.5200    4.2115 C   0  0  0  0  0  0
    2.6701   -1.1920    3.2545 C   0  0  0  0  0  0
    1.6257   -2.2805    3.7227 C   0  0  0  0  0  0
    0.6155   -2.8613    2.6982 C   0  0  0  0  0  0
    1.2212   -3.4449    1.3634 C   0  0  0  0  0  0
    0.2150   -3.8239    0.2695 C   0  0  0  0  0  0
    0.7189   -3.9063   -1.1993 C   0  0  0  0  0  0
    1.7639   -4.9824   -1.6183 C   0  0  0  0  0  0
    1.2204   -6.3705   -1.9270 C   0  0  0  0  0  0
    2.6113   -4.4906   -2.7213 N   0  0  0  0  0  0
   -0.4663   -4.2107   -1.9781 O   0  0  0  0  0  0
    2.1296   -2.4756    0.8296 O   0  0  0  0  0  0
    2.3421   -0.3580    6.1272 O   0  0  0  0  0  0
    6.3117    1.4236    2.4694 O   0  0  0  0  0  0
    5.3851    2.2013    1.8513 C   0  0  0  0  0  0
    5.3357    3.4164    1.8732 O   0  0  0  0  0  0
    4.4798    1.3125    1.0440 C   0  0  0  0  0  0
    5.1673    0.7550   -0.2127 C   0  0  0  0  0  0
    4.1919    0.0174   -1.1390 C   0  0  0  0  0  0
    4.1479   -1.4589   -0.8198 C   0  0  0  0  0  0
    3.8517   -2.3215   -1.6395 O   0  0  0  0  0  0
    4.4668   -1.7404    0.4521 O   0  0  0  0  0  0
    5.7663    1.9673   -0.9388 C   0  0  0  0  0  0
    6.9520    2.0584   -1.2185 O   0  0  0  0  0  0
    4.8881    2.9455   -1.1992 O   0  0  0  0  0  0
    8.7526    3.6700    4.2569 O   0  0  0  0  0  0
    9.9594    4.3101    4.0286 C   0  0  0  0  0  0
   10.3440    4.7013    2.9343 O   0  0  0  0  0  0
   10.7808    4.4829    5.3130 C   0  0  0  0  0  0
    9.9562    4.6660    6.6249 C   0  0  0  0  0  0
    9.2915    3.4214    7.2411 C   0  0  0  0  0  0
   10.1438    2.1896    7.1381 C   0  0  0  0  0  0
   10.8623    1.7431    8.0218 O   0  0  0  0  0  0
   10.0291    1.5844    5.9461 O   0  0  0  0  0  0
   10.7052    5.3851    7.7537 C   0  0  0  0  0  0
   11.1211    4.8109    8.7406 O   0  0  0  0  0  0
   10.9710    6.6897    7.5333 O   0  0  0  0  0  0
    2.8651   -3.5203   -2.5404 H   0  0  0  0  0  0
    2.0507   -4.4613   -3.5759 H   0  0  0  0  0  0
   -0.1778   -4.1225   -2.9110 H   0  0  0  0  0  0
    1.6238   -1.6698    0.6164 H   0  0  0  0  0  0
    1.5177   -0.4484    5.6204 H   0  0  0  0  0  0
    4.8380   -0.9957    0.9631 H   0  0  0  0  0  0
    3.9481    2.7192   -0.9893 H   0  0  0  0  0  0
   10.5977    0.7863    5.9799 H   0  0  0  0  0  0
   11.5639    7.1144    8.1925 H   0  0  0  0  0  0
  1  2  1  0  0  0
  2  3  1  0  0  0
  3  4  1  0  0  0
  4  5  1  0  0  0
  5  6  1  0  0  0
  5  7  1  0  0  0
  7  8  1  0  0  0
  7 39  1  0  0  0
  8  9  1  0  0  0
  8 27  1  0  0  0
  9 10  1  0  0  0
 10 11  1  0  0  0
 10 12  1  0  0  0
 12 13  1  0  0  0
 13 14  1  0  0  0
 13 26  1  0  0  0
 14 15  1  0  0  0
 15 16  1  0  0  0
 16 17  1  0  0  0
 17 18  1  0  0  0
 18 19  1  0  0  0
 18 25  1  0  0  0
 19 20  1  0  0  0
 20 21  1  0  0  0
 20 24  1  0  0  0
 21 22  1  0  0  0
 21 23  1  0  0  0
 23 51  1  0  0  0
 23 52  1  0  0  0
 24 53  1  0  0  0
 25 54  1  0  0  0
 26 55  1  0  0  0
 27 28  1  0  0  0
 28 29  2  0  0  0
 28 30  1  0  0  0
 30 31  1  0  0  0
 31 32  1  0  0  0
 31 36  1  0  0  0
 32 33  1  0  0  0
 33 34  2  0  0  0
 33 35  1  0  0  0
 35 56  1  0  0  0
 36 37  2  0  0  0
 36 38  1  0  0  0
 38 57  1  0  0  0
 39 40  1  0  0  0
 40 41  2  0  0  0
 40 42  1  0  0  0
 42 43  1  0  0  0
 43 44  1  0  0  0
 43 48  1  0  0  0
 44 45  1  0  0  0
 45 46  2  0  0  0
 45 47  1  0  0  0
 47 58  1  0  0  0
 48 49  2  0  0  0
 48 50  1  0  0  0
 50 59  1  0  0  0
M  END
>  <AUTHOR>
    GENERATED BY OPEN BABEL 2.4.1

>  <CHROM.1>
-162.97525252,-173.34891637,-34.23108009,-0.53425074,179.61008672,35.19581529
-115.20613681,-84.48731525,111.58378374,26.65585691,47.54082294,175.97273656
155.23660221,-67.87208852,179.99049105,52.84572299,-171.17218459,158.23883470
-62.58614902,65.16546187,82.40033826,171.34131533,42.07812322,27.15950197
-72.57231401,-171.71897551,-92.01378291,123.46251703,-153.58437023,-10.50032463
-6.95454509,28.00103488,-31.53791794,76.09765055,38.32996809,-106.79359747
97.89219513,-178.59132886,-171.29807802,5.89016749,0.66824427,2.60685587
-2.45722611,0.62703917,1.37314439

>  <COMPND>
    UNNAMED

>  <MASTER>
        0    0    0    0    0    0    0    0  109    0  109    0

>  <Name>
FB1.pdb

>  <RI>
0

>  <Rbt.Current_Directory>
/home/fc/tossine/FB1_39/p3/2_clust01

>  <Rbt.Executable>
rbdock/0.1.0

>  <Rbt.Library>
librxdock.so/0.1.0

>  <Rbt.Parameter_File>
/cluster/rxdock/data/scripts/dock.prm

>  <Rbt.Receptor>
rx_2.prm

>  <SCORE>
25.4109

>  <SCORE.INTER>
4.46003

>  <SCORE.INTER.CONST>
1

>  <SCORE.INTER.POLAR>
-1.37715

>  <SCORE.INTER.REPUL>
0.401768

>  <SCORE.INTER.ROT>
32

>  <SCORE.INTER.VDW>
-30.2665

>  <SCORE.INTER.norm>
0.0892006

>  <SCORE.INTRA>
16.8546

>  <SCORE.INTRA.DIHEDRAL>
17.073

>  <SCORE.INTRA.DIHEDRAL.0>
47.3121

>  <SCORE.INTRA.POLAR>
0.488382

>  <SCORE.INTRA.POLAR.0>
-1.47808

>  <SCORE.INTRA.REPUL>
0

>  <SCORE.INTRA.REPUL.0>
0

>  <SCORE.INTRA.VDW>
6.65759

>  <SCORE.INTRA.VDW.0>
-2.78316

>  <SCORE.INTRA.norm>
0.337092

>  <SCORE.RESTR>
4.09631

>  <SCORE.RESTR.CAVITY>
4.09631

>  <SCORE.RESTR.norm>
0.0819261

>  <SCORE.SYSTEM>
0

>  <SCORE.SYSTEM.CONST>
0

>  <SCORE.SYSTEM.DIHEDRAL>
0

>  <SCORE.SYSTEM.norm>
0

>  <SCORE.heavy>
50

>  <SCORE.norm>
0.508219

$$$$
