FB1.pdb
  RxDock  10072010523D
librxdock.so/0.1.0
 59 58  0  0  0  0  0  0  0  0999 V2000
  -15.5249   11.3712   -1.4859 C   0  0  0  0  0  0
  -14.6051   12.0940   -0.5047 C   0  0  0  0  0  0
  -13.4645   12.8281   -1.2288 C   0  0  0  0  0  0
  -12.5240   11.8827   -2.0172 C   0  0  0  0  0  0
  -11.1079   11.6727   -1.3760 C   0  0  0  0  0  0
  -11.3008   11.1590    0.0695 C   0  0  0  0  0  0
  -10.1756   10.6936   -2.2066 C   0  0  0  0  0  0
   -8.5953   10.8356   -1.9865 C   0  0  0  0  0  0
   -7.5278    9.6869   -2.2500 C   0  0  0  0  0  0
   -6.7119    9.1702   -0.9126 C   0  0  0  0  0  0
   -6.6357   10.3245    0.0853 C   0  0  0  0  0  0
   -7.2974    7.8749   -0.1885 C   0  0  0  0  0  0
   -8.4953    6.9652   -0.7850 C   0  0  0  0  0  0
   -8.2280    5.6861   -1.6502 C   0  0  0  0  0  0
   -7.2592    4.5621   -1.0610 C   0  0  0  0  0  0
   -5.7258    4.4346   -1.4173 C   0  0  0  0  0  0
   -5.2931    4.3188   -2.9029 C   0  0  0  0  0  0
   -4.3025    3.1439   -3.2597 C   0  0  0  0  0  0
   -4.9453    1.7954   -3.6075 C   0  0  0  0  0  0
   -5.6999    1.0271   -2.4856 C   0  0  0  0  0  0
   -7.0743    1.5395   -1.9622 C   0  0  0  0  0  0
   -8.2386    1.4754   -2.9409 C   0  0  0  0  0  0
   -7.4241    0.8923   -0.6835 N   0  0  0  0  0  0
   -5.9780   -0.2771   -3.0563 O   0  0  0  0  0  0
   -3.4996    3.5643   -4.3680 O   0  0  0  0  0  0
   -9.2118    6.4946    0.3690 O   0  0  0  0  0  0
   -8.1631   11.9307   -2.8388 O   0  0  0  0  0  0
   -8.3997   13.1912   -2.3910 C   0  0  0  0  0  0
   -9.1515   14.0041   -2.8944 O   0  0  0  0  0  0
   -7.6511   13.3866   -1.1015 C   0  0  0  0  0  0
   -8.2829   14.4677   -0.2101 C   0  0  0  0  0  0
   -8.9565   13.8821    1.0375 C   0  0  0  0  0  0
   -9.4597   14.9767    1.9498 C   0  0  0  0  0  0
   -9.3829   16.1710    1.6827 O   0  0  0  0  0  0
  -10.0037   14.5171    3.0863 O   0  0  0  0  0  0
   -7.1345   15.3994    0.2013 C   0  0  0  0  0  0
   -6.6359   15.3911    1.3165 O   0  0  0  0  0  0
   -6.7536   16.2616   -0.7513 O   0  0  0  0  0  0
  -10.6287    9.2870   -2.0799 O   0  0  0  0  0  0
  -10.3774    8.4166   -3.1275 C   0  0  0  0  0  0
   -9.7746    8.7140   -4.1505 O   0  0  0  0  0  0
  -10.9423    7.0136   -2.8692 C   0  0  0  0  0  0
  -11.5582    6.7812   -1.4546 C   0  0  0  0  0  0
  -12.8361    7.5567   -1.0858 C   0  0  0  0  0  0
  -12.9781    7.7845    0.3915 C   0  0  0  0  0  0
  -12.1907    7.4111    1.2501 O   0  0  0  0  0  0
  -14.0834    8.4801    0.6996 O   0  0  0  0  0  0
  -11.8034    5.3094   -1.0998 C   0  0  0  0  0  0
  -11.5725    4.8481    0.0004 O   0  0  0  0  0  0
  -12.3974    4.5727   -2.0619 O   0  0  0  0  0  0
   -6.6516    1.0071   -0.0287 H   0  0  0  0  0  0
   -7.4925   -0.1165   -0.8359 H   0  0  0  0  0  0
   -6.2395   -0.8308   -2.2905 H   0  0  0  0  0  0
   -2.8357    2.8720   -4.5425 H   0  0  0  0  0  0
   -8.5605    6.2306    1.0403 H   0  0  0  0  0  0
  -10.2151   15.1989    3.7525 H   0  0  0  0  0  0
   -7.2812   16.2093   -1.5865 H   0  0  0  0  0  0
  -14.1096    8.5481    1.6773 H   0  0  0  0  0  0
  -12.4771    5.0119   -2.9377 H   0  0  0  0  0  0
  1  2  1  0  0  0
  2  3  1  0  0  0
  3  4  1  0  0  0
  4  5  1  0  0  0
  5  6  1  0  0  0
  5  7  1  0  0  0
  7  8  1  0  0  0
  7 39  1  0  0  0
  8  9  1  0  0  0
  8 27  1  0  0  0
  9 10  1  0  0  0
 10 11  1  0  0  0
 10 12  1  0  0  0
 12 13  1  0  0  0
 13 14  1  0  0  0
 13 26  1  0  0  0
 14 15  1  0  0  0
 15 16  1  0  0  0
 16 17  1  0  0  0
 17 18  1  0  0  0
 18 19  1  0  0  0
 18 25  1  0  0  0
 19 20  1  0  0  0
 20 21  1  0  0  0
 20 24  1  0  0  0
 21 22  1  0  0  0
 21 23  1  0  0  0
 23 51  1  0  0  0
 23 52  1  0  0  0
 24 53  1  0  0  0
 25 54  1  0  0  0
 26 55  1  0  0  0
 27 28  1  0  0  0
 28 29  2  0  0  0
 28 30  1  0  0  0
 30 31  1  0  0  0
 31 32  1  0  0  0
 31 36  1  0  0  0
 32 33  1  0  0  0
 33 34  2  0  0  0
 33 35  1  0  0  0
 35 56  1  0  0  0
 36 37  2  0  0  0
 36 38  1  0  0  0
 38 57  1  0  0  0
 39 40  1  0  0  0
 40 41  2  0  0  0
 40 42  1  0  0  0
 42 43  1  0  0  0
 43 44  1  0  0  0
 43 48  1  0  0  0
 44 45  1  0  0  0
 45 46  2  0  0  0
 45 47  1  0  0  0
 47 58  1  0  0  0
 48 49  2  0  0  0
 48 50  1  0  0  0
 50 59  1  0  0  0
M  END
>  <AUTHOR>
    GENERATED BY OPEN BABEL 2.4.1

>  <CHROM.1>
-62.16250013,-107.14503049,56.01725965,157.30224758,156.03804337,151.17337176
-116.25057529,78.45113158,-28.43071452,7.88239984,94.00472195,53.33690918
-42.49573568,-97.03657706,-55.36254699,-130.00494258,87.69564643,-66.88153612
175.23465043,71.81893069,67.27193553,165.91075871,52.88903932,-114.14771490
-155.00896429,109.30126272,175.02448486,-104.87595808,2.95642981,171.22196939
2.01633851,1.82267239,-5.67189338,66.37590648,-152.87581936,139.03270130
-0.12697615,177.81688945,9.62386916,-9.16167567,8.67391742,-1.18907994,1.82292051
0.13311208,0.16616566

>  <COMPND>
    UNNAMED

>  <MASTER>
        0    0    0    0    0    0    0    0  109    0  109    0

>  <Name>
FB1.pdb

>  <RI>
0

>  <Rbt.Current_Directory>
/home/fc/tossine/FB1_39/p3/2_clust01

>  <Rbt.Executable>
rbdock/0.1.0

>  <Rbt.Library>
librxdock.so/0.1.0

>  <Rbt.Parameter_File>
/cluster/rxdock/data/scripts/dock.prm

>  <Rbt.Receptor>
rx_0.prm

>  <SCORE>
32.3369

>  <SCORE.INTER>
9.31377

>  <SCORE.INTER.CONST>
1

>  <SCORE.INTER.POLAR>
-2.28815

>  <SCORE.INTER.REPUL>
0.562269

>  <SCORE.INTER.ROT>
32

>  <SCORE.INTER.VDW>
-23.1179

>  <SCORE.INTER.norm>
0.186275

>  <SCORE.INTRA>
22.1436

>  <SCORE.INTRA.DIHEDRAL>
39.6942

>  <SCORE.INTRA.DIHEDRAL.0>
47.3121

>  <SCORE.INTRA.POLAR>
1.47808

>  <SCORE.INTRA.POLAR.0>
-1.47808

>  <SCORE.INTRA.REPUL>
0

>  <SCORE.INTRA.REPUL.0>
0

>  <SCORE.INTRA.VDW>
-2.72895

>  <SCORE.INTRA.VDW.0>
-2.78316

>  <SCORE.INTRA.norm>
0.442872

>  <SCORE.RESTR>
0.879498

>  <SCORE.RESTR.CAVITY>
0.879498

>  <SCORE.RESTR.norm>
0.01759

>  <SCORE.SYSTEM>
0

>  <SCORE.SYSTEM.CONST>
0

>  <SCORE.SYSTEM.DIHEDRAL>
0

>  <SCORE.SYSTEM.norm>
0

>  <SCORE.heavy>
50

>  <SCORE.norm>
0.646738

$$$$
