FB1.pdb
  RxDock  10072013303D
librxdock.so/0.1.0
 59 58  0  0  0  0  0  0  0  0999 V2000
   -6.6673   10.0381    2.8225 C   0  0  0  0  0  0
   -7.5654   10.4697    1.6655 C   0  0  0  0  0  0
   -6.9241   10.1631    0.3020 C   0  0  0  0  0  0
   -6.6429    8.6565    0.0767 C   0  0  0  0  0  0
   -5.9911    8.3048   -1.3061 C   0  0  0  0  0  0
   -4.9280    7.2060   -1.0762 C   0  0  0  0  0  0
   -7.0430    7.8556   -2.4059 C   0  0  0  0  0  0
   -8.3431    7.0744   -1.8905 C   0  0  0  0  0  0
   -9.7825    7.1508   -2.5616 C   0  0  0  0  0  0
  -10.9780    7.7373   -1.5878 C   0  0  0  0  0  0
  -12.3203    7.5238   -2.2854 C   0  0  0  0  0  0
  -11.0407    7.1360   -0.1115 C   0  0  0  0  0  0
  -12.2684    7.3764    0.9150 C   0  0  0  0  0  0
  -12.8084    6.2471    1.8579 C   0  0  0  0  0  0
  -11.7954    5.1080    2.3326 C   0  0  0  0  0  0
  -12.2191    3.8294    3.1575 C   0  0  0  0  0  0
  -13.6287    3.7684    3.8029 C   0  0  0  0  0  0
  -13.7228    3.1037    5.2307 C   0  0  0  0  0  0
  -13.3713    1.6129    5.3106 C   0  0  0  0  0  0
  -13.3578    0.9324    6.7088 C   0  0  0  0  0  0
  -13.1603   -0.6070    6.8378 C   0  0  0  0  0  0
  -14.0829   -1.4811    5.9999 C   0  0  0  0  0  0
  -11.7477   -0.9752    6.6247 N   0  0  0  0  0  0
  -12.2182    1.5156    7.3905 O   0  0  0  0  0  0
  -12.8534    3.8238    6.1113 O   0  0  0  0  0  0
  -11.8141    8.4165    1.7972 O   0  0  0  0  0  0
   -8.0065    5.6608   -1.9210 O   0  0  0  0  0  0
   -7.6430    5.1390   -3.1213 C   0  0  0  0  0  0
   -7.6931    5.7051   -4.1967 O   0  0  0  0  0  0
   -7.0676    3.7690   -2.8902 C   0  0  0  0  0  0
   -8.0351    2.8417   -2.1376 C   0  0  0  0  0  0
   -9.4962    3.0513   -2.5554 C   0  0  0  0  0  0
   -9.6901    2.7591   -4.0252 C   0  0  0  0  0  0
   -9.0305    3.2864   -4.9144 O   0  0  0  0  0  0
  -10.6567    1.8617   -4.2686 O   0  0  0  0  0  0
   -7.5933    1.4102   -2.4720 C   0  0  0  0  0  0
   -8.1774    0.7034   -3.2793 O   0  0  0  0  0  0
   -6.5387    0.9780   -1.7671 O   0  0  0  0  0  0
   -7.3934    8.9829   -3.3038 O   0  0  0  0  0  0
   -8.1733   10.0099   -2.7987 C   0  0  0  0  0  0
   -8.7645    9.9731   -1.7275 O   0  0  0  0  0  0
   -8.2210   11.2227   -3.7374 C   0  0  0  0  0  0
   -7.6370   12.5494   -3.1602 C   0  0  0  0  0  0
   -6.9666   13.5307   -4.1389 C   0  0  0  0  0  0
   -6.8246   14.9155   -3.5760 C   0  0  0  0  0  0
   -6.3836   15.1941   -2.4695 O   0  0  0  0  0  0
   -7.2240   15.8632   -4.4378 O   0  0  0  0  0  0
   -8.6199   13.3610   -2.3073 C   0  0  0  0  0  0
   -8.4164   13.6279   -1.1394 O   0  0  0  0  0  0
   -9.6870   13.8574   -2.9677 O   0  0  0  0  0  0
  -11.2638   -0.9766    7.5216 H   0  0  0  0  0  0
  -11.2956   -0.2356    6.0825 H   0  0  0  0  0  0
  -11.4950    1.4894    6.7289 H   0  0  0  0  0  0
  -12.0902    4.1401    5.5936 H   0  0  0  0  0  0
  -11.0712    8.0668    2.3170 H   0  0  0  0  0  0
  -10.7580    1.6021   -5.2045 H   0  0  0  0  0  0
   -6.1734    1.6394   -1.1284 H   0  0  0  0  0  0
   -7.0992   16.7245   -3.9863 H   0  0  0  0  0  0
  -10.2472   14.4796   -2.4525 H   0  0  0  0  0  0
  1  2  1  0  0  0
  2  3  1  0  0  0
  3  4  1  0  0  0
  4  5  1  0  0  0
  5  6  1  0  0  0
  5  7  1  0  0  0
  7  8  1  0  0  0
  7 39  1  0  0  0
  8  9  1  0  0  0
  8 27  1  0  0  0
  9 10  1  0  0  0
 10 11  1  0  0  0
 10 12  1  0  0  0
 12 13  1  0  0  0
 13 14  1  0  0  0
 13 26  1  0  0  0
 14 15  1  0  0  0
 15 16  1  0  0  0
 16 17  1  0  0  0
 17 18  1  0  0  0
 18 19  1  0  0  0
 18 25  1  0  0  0
 19 20  1  0  0  0
 20 21  1  0  0  0
 20 24  1  0  0  0
 21 22  1  0  0  0
 21 23  1  0  0  0
 23 51  1  0  0  0
 23 52  1  0  0  0
 24 53  1  0  0  0
 25 54  1  0  0  0
 26 55  1  0  0  0
 27 28  1  0  0  0
 28 29  2  0  0  0
 28 30  1  0  0  0
 30 31  1  0  0  0
 31 32  1  0  0  0
 31 36  1  0  0  0
 32 33  1  0  0  0
 33 34  2  0  0  0
 33 35  1  0  0  0
 35 56  1  0  0  0
 36 37  2  0  0  0
 36 38  1  0  0  0
 38 57  1  0  0  0
 39 40  1  0  0  0
 40 41  2  0  0  0
 40 42  1  0  0  0
 42 43  1  0  0  0
 43 44  1  0  0  0
 43 48  1  0  0  0
 44 45  1  0  0  0
 45 46  2  0  0  0
 45 47  1  0  0  0
 47 58  1  0  0  0
 48 49  2  0  0  0
 48 50  1  0  0  0
 50 59  1  0  0  0
M  END
>  <AUTHOR>
    GENERATED BY OPEN BABEL 2.4.1

>  <CHROM.1>
60.53166257,179.87421598,140.26402070,-32.12183051,148.00459268,-71.43171381
-119.14441384,-58.95349253,-170.40385782,-169.13567379,140.76008008,28.51507602
-66.00690817,-173.49168758,-12.62568877,-141.52088012,-64.40758232,176.06039831
-32.74484921,173.36237477,-51.97663127,-45.82974194,91.14796350,-7.51184098
55.90628644,37.30878572,61.02187768,-102.64968690,-54.09662414,-175.50079692
-0.62957862,-11.33509046,-117.86815749,148.11147902,162.43390155,119.77060703
47.96150157,179.78258406,-171.76617727,-9.42973785,6.64054921,-0.32943998
0.75190719,1.08118288,0.17203247

>  <COMPND>
    UNNAMED

>  <MASTER>
        0    0    0    0    0    0    0    0  109    0  109    0

>  <Name>
FB1.pdb

>  <RI>
0

>  <Rbt.Current_Directory>
/home/fc/tossine/FB1_39/p3/2_clust01

>  <Rbt.Executable>
rbdock/0.1.0

>  <Rbt.Library>
librxdock.so/0.1.0

>  <Rbt.Parameter_File>
/cluster/rxdock/data/scripts/dock.prm

>  <Rbt.Receptor>
rx_3.prm

>  <SCORE>
11.2246

>  <SCORE.INTER>
-4.22428

>  <SCORE.INTER.CONST>
1

>  <SCORE.INTER.POLAR>
-3.25799

>  <SCORE.INTER.REPUL>
0.0770282

>  <SCORE.INTER.ROT>
32

>  <SCORE.INTER.VDW>
-30.9322

>  <SCORE.INTER.norm>
-0.0844856

>  <SCORE.INTRA>
14.7875

>  <SCORE.INTRA.DIHEDRAL>
14.2141

>  <SCORE.INTRA.DIHEDRAL.0>
47.3121

>  <SCORE.INTRA.POLAR>
1.47808

>  <SCORE.INTRA.POLAR.0>
-1.47808

>  <SCORE.INTRA.REPUL>
0

>  <SCORE.INTRA.REPUL.0>
0

>  <SCORE.INTRA.VDW>
2.65505

>  <SCORE.INTRA.VDW.0>
-2.78316

>  <SCORE.INTRA.norm>
0.295751

>  <SCORE.RESTR>
0.661345

>  <SCORE.RESTR.CAVITY>
0.661345

>  <SCORE.RESTR.norm>
0.0132269

>  <SCORE.SYSTEM>
0

>  <SCORE.SYSTEM.CONST>
0

>  <SCORE.SYSTEM.DIHEDRAL>
0

>  <SCORE.SYSTEM.norm>
0

>  <SCORE.heavy>
50

>  <SCORE.norm>
0.224492

$$$$
