FB1.pdb
  RxDock  10072012423D
librxdock.so/0.1.0
 59 58  0  0  0  0  0  0  0  0999 V2000
    7.5117   -1.7318    0.1626 C   0  0  0  0  0  0
    7.2590   -2.0373   -1.3119 C   0  0  0  0  0  0
    5.9430   -1.4136   -1.8052 C   0  0  0  0  0  0
    6.0510    0.1031   -2.1009 C   0  0  0  0  0  0
    6.2150    1.0140   -0.8344 C   0  0  0  0  0  0
    6.4943    2.4590   -1.3085 C   0  0  0  0  0  0
    4.9664    0.9691    0.1438 C   0  0  0  0  0  0
    3.5153    1.0766   -0.5262 C   0  0  0  0  0  0
    2.4821   -0.1235   -0.6689 C   0  0  0  0  0  0
    2.6739   -1.0550   -2.0168 C   0  0  0  0  0  0
    3.0195   -2.4772   -1.5785 C   0  0  0  0  0  0
    1.4402   -1.0917   -3.0274 C   0  0  0  0  0  0
    0.7578    0.2250   -3.6749 C   0  0  0  0  0  0
    0.4267    1.5020   -2.8288 C   0  0  0  0  0  0
   -0.3040    1.3101   -1.4223 C   0  0  0  0  0  0
   -0.9705    2.4823   -0.5999 C   0  0  0  0  0  0
   -2.3674    3.0120   -1.0187 C   0  0  0  0  0  0
   -2.9338    4.2343   -0.1973 C   0  0  0  0  0  0
   -4.4366    4.5077   -0.3355 C   0  0  0  0  0  0
   -4.9134    5.4441   -1.4819 C   0  0  0  0  0  0
   -6.3923    5.4093   -1.9688 C   0  0  0  0  0  0
   -7.4595    5.6568   -0.9119 C   0  0  0  0  0  0
   -6.5842    6.2985   -3.1302 N   0  0  0  0  0  0
   -4.7196    6.7856   -0.9654 O   0  0  0  0  0  0
   -2.6371    4.0126    1.1856 O   0  0  0  0  0  0
    1.6888    0.6693   -4.6761 O   0  0  0  0  0  0
    2.7924    2.0857    0.2299 O   0  0  0  0  0  0
    2.6099    1.8504    1.5552 C   0  0  0  0  0  0
    1.7764    1.1135    2.0469 O   0  0  0  0  0  0
    3.6813    2.5776    2.3198 C   0  0  0  0  0  0
    3.1357    3.2907    3.5673 C   0  0  0  0  0  0
    2.7700    2.3130    4.6915 C   0  0  0  0  0  0
    3.9227    1.3880    5.0058 C   0  0  0  0  0  0
    4.7733    1.6287    5.8557 O   0  0  0  0  0  0
    3.9282    0.2701    4.2647 O   0  0  0  0  0  0
    4.2514    4.2354    4.0350 C   0  0  0  0  0  0
    4.0602    5.4115    4.3044 O   0  0  0  0  0  0
    5.4684    3.6758    4.0772 O   0  0  0  0  0  0
    5.0610   -0.1772    1.0803 O   0  0  0  0  0  0
    5.9015   -0.0660    2.1754 C   0  0  0  0  0  0
    6.0444   -0.9268    3.0338 O   0  0  0  0  0  0
    6.6507    1.2728    2.2028 C   0  0  0  0  0  0
    8.0741    1.2396    2.8410 C   0  0  0  0  0  0
    9.2608    0.8466    1.9423 C   0  0  0  0  0  0
    9.3974    1.7262    0.7331 C   0  0  0  0  0  0
    8.8263    2.7941    0.5594 O   0  0  0  0  0  0
   10.2524    1.2257   -0.1717 O   0  0  0  0  0  0
    8.4715    2.5232    3.5803 C   0  0  0  0  0  0
    9.0529    2.5175    4.6474 O   0  0  0  0  0  0
    8.2288    3.6729    2.9166 O   0  0  0  0  0  0
   -6.1091    5.8993   -3.9386 H   0  0  0  0  0  0
   -6.1003    7.1809   -2.9495 H   0  0  0  0  0  0
   -3.7593    6.9536   -1.0694 H   0  0  0  0  0  0
   -2.8263    4.8355    1.6730 H   0  0  0  0  0  0
    2.4076    1.1459   -4.2281 H   0  0  0  0  0  0
    4.6389   -0.3657    4.4750 H   0  0  0  0  0  0
    5.4674    2.6878    4.0253 H   0  0  0  0  0  0
   10.6023    0.3903    0.2039 H   0  0  0  0  0  0
    8.4652    4.4950    3.4008 H   0  0  0  0  0  0
  1  2  1  0  0  0
  2  3  1  0  0  0
  3  4  1  0  0  0
  4  5  1  0  0  0
  5  6  1  0  0  0
  5  7  1  0  0  0
  7  8  1  0  0  0
  7 39  1  0  0  0
  8  9  1  0  0  0
  8 27  1  0  0  0
  9 10  1  0  0  0
 10 11  1  0  0  0
 10 12  1  0  0  0
 12 13  1  0  0  0
 13 14  1  0  0  0
 13 26  1  0  0  0
 14 15  1  0  0  0
 15 16  1  0  0  0
 16 17  1  0  0  0
 17 18  1  0  0  0
 18 19  1  0  0  0
 18 25  1  0  0  0
 19 20  1  0  0  0
 20 21  1  0  0  0
 20 24  1  0  0  0
 21 22  1  0  0  0
 21 23  1  0  0  0
 23 51  1  0  0  0
 23 52  1  0  0  0
 24 53  1  0  0  0
 25 54  1  0  0  0
 26 55  1  0  0  0
 27 28  1  0  0  0
 28 29  2  0  0  0
 28 30  1  0  0  0
 30 31  1  0  0  0
 31 32  1  0  0  0
 31 36  1  0  0  0
 32 33  1  0  0  0
 33 34  2  0  0  0
 33 35  1  0  0  0
 35 56  1  0  0  0
 36 37  2  0  0  0
 36 38  1  0  0  0
 38 57  1  0  0  0
 39 40  1  0  0  0
 40 41  2  0  0  0
 40 42  1  0  0  0
 42 43  1  0  0  0
 43 44  1  0  0  0
 43 48  1  0  0  0
 44 45  1  0  0  0
 45 46  2  0  0  0
 45 47  1  0  0  0
 47 58  1  0  0  0
 48 49  2  0  0  0
 48 50  1  0  0  0
 50 59  1  0  0  0
M  END
>  <AUTHOR>
    GENERATED BY OPEN BABEL 2.4.1

>  <CHROM.1>
78.43984564,-70.24456857,172.62529391,-45.38162601,107.28570441,78.45427380
-86.48070186,-60.21586263,117.40203600,54.76406278,-44.54977332,-46.49687675
-78.90563983,-166.64313570,78.45481220,-176.84432852,-163.60038149,-88.74810986
169.13021811,160.25360081,56.54709920,78.75413262,69.94644453,-78.91378121
136.72393962,72.74947503,52.49189249,131.24933444,91.31677330,-177.29956039
-14.56024381,178.32038862,-148.48523368,85.61860872,57.01414645,138.27400086
13.33120340,-1.25115292,178.65279000,3.10460330,1.90497053,0.62743645,-0.07521667
0.37456915,-2.13667255

>  <COMPND>
    UNNAMED

>  <MASTER>
        0    0    0    0    0    0    0    0  109    0  109    0

>  <Name>
FB1.pdb

>  <RI>
0

>  <Rbt.Current_Directory>
/home/fc/tossine/FB1_39/p3/2_clust01

>  <Rbt.Executable>
rbdock/0.1.0

>  <Rbt.Library>
librxdock.so/0.1.0

>  <Rbt.Parameter_File>
/cluster/rxdock/data/scripts/dock.prm

>  <Rbt.Receptor>
rx_2.prm

>  <SCORE>
3.92356

>  <SCORE.INTER>
-14.3535

>  <SCORE.INTER.CONST>
1

>  <SCORE.INTER.POLAR>
-5.70803

>  <SCORE.INTER.REPUL>
0.0997082

>  <SCORE.INTER.ROT>
32

>  <SCORE.INTER.VDW>
-32.8447

>  <SCORE.INTER.norm>
-0.28707

>  <SCORE.INTRA>
17.2984

>  <SCORE.INTRA.DIHEDRAL>
22.5272

>  <SCORE.INTRA.DIHEDRAL.0>
47.3121

>  <SCORE.INTRA.POLAR>
1.47212

>  <SCORE.INTRA.POLAR.0>
-1.47808

>  <SCORE.INTRA.REPUL>
0

>  <SCORE.INTRA.REPUL.0>
0

>  <SCORE.INTRA.VDW>
1.02958

>  <SCORE.INTRA.VDW.0>
-2.78316

>  <SCORE.INTRA.norm>
0.345969

>  <SCORE.RESTR>
0.978634

>  <SCORE.RESTR.CAVITY>
0.978634

>  <SCORE.RESTR.norm>
0.0195727

>  <SCORE.SYSTEM>
0

>  <SCORE.SYSTEM.CONST>
0

>  <SCORE.SYSTEM.DIHEDRAL>
0

>  <SCORE.SYSTEM.norm>
0

>  <SCORE.heavy>
50

>  <SCORE.norm>
0.0784712

$$$$
