FB1.pdb
  RxDock  10072013263D
librxdock.so/0.1.0
 59 58  0  0  0  0  0  0  0  0999 V2000
    9.0078    0.4236   -1.1271 C   0  0  0  0  0  0
    9.4646    1.8501   -0.8311 C   0  0  0  0  0  0
    8.9093    2.3592    0.5093 C   0  0  0  0  0  0
    7.3615    2.3664    0.5738 C   0  0  0  0  0  0
    6.7600    2.5997    2.0035 C   0  0  0  0  0  0
    5.2923    3.0590    1.8438 C   0  0  0  0  0  0
    6.8570    1.3274    2.9467 C   0  0  0  0  0  0
    5.8685    0.1085    2.6250 C   0  0  0  0  0  0
    6.2711   -1.2127    1.8374 C   0  0  0  0  0  0
    6.2699   -1.0750    0.1935 C   0  0  0  0  0  0
    7.1524   -2.1790   -0.3865 C   0  0  0  0  0  0
    4.8402   -1.1061   -0.5136 C   0  0  0  0  0  0
    4.3355   -0.0073   -1.5890 C   0  0  0  0  0  0
    2.9666   -0.1352   -2.3413 C   0  0  0  0  0  0
    1.8086   -1.0015   -1.6648 C   0  0  0  0  0  0
    0.2681   -0.8038   -1.9514 C   0  0  0  0  0  0
   -0.3908    0.5733   -1.6740 C   0  0  0  0  0  0
   -0.7316    1.4590   -2.9344 C   0  0  0  0  0  0
   -1.6093    2.6912   -2.6816 C   0  0  0  0  0  0
   -3.1313    2.4766   -2.4460 C   0  0  0  0  0  0
   -4.0294    1.8787   -3.5692 C   0  0  0  0  0  0
   -5.4737    1.5781   -3.1937 C   0  0  0  0  0  0
   -3.9628    2.7039   -4.7903 N   0  0  0  0  0  0
   -3.2036    1.5197   -1.3583 O   0  0  0  0  0  0
    0.5025    1.8915   -3.5171 O   0  0  0  0  0  0
    4.2426    1.2205   -0.8471 O   0  0  0  0  0  0
    5.3839   -0.3713    3.9085 O   0  0  0  0  0  0
    4.6042    0.4760    4.6293 C   0  0  0  0  0  0
    4.9814    1.4600    5.2366 O   0  0  0  0  0  0
    3.1696    0.0539    4.4705 C   0  0  0  0  0  0
    2.3502    1.0503    3.6349 C   0  0  0  0  0  0
    2.9371    1.2662    2.2340 C   0  0  0  0  0  0
    1.9139    0.9689    1.1626 C   0  0  0  0  0  0
    1.4699   -0.1525    0.9413 O   0  0  0  0  0  0
    1.5326    2.0537    0.4721 O   0  0  0  0  0  0
    0.9408    0.4519    3.5273 C   0  0  0  0  0  0
    0.7002   -0.7285    3.7306 O   0  0  0  0  0  0
   -0.0020    1.3229    3.1423 O   0  0  0  0  0  0
    8.2624    0.8769    3.0953 O   0  0  0  0  0  0
    9.1583    1.7143    3.7388 C   0  0  0  0  0  0
   10.3742    1.5730    3.7285 O   0  0  0  0  0  0
    8.4573    2.8603    4.4801 C   0  0  0  0  0  0
    8.9197    3.0986    5.9511 C   0  0  0  0  0  0
    9.5222    4.4700    6.3068 C   0  0  0  0  0  0
   10.2990    4.4541    7.5916 C   0  0  0  0  0  0
   10.7103    3.4544    8.1643 O   0  0  0  0  0  0
   10.5286    5.6873    8.0679 O   0  0  0  0  0  0
    7.8590    2.7809    7.0124 C   0  0  0  0  0  0
    6.6869    3.0748    6.8831 O   0  0  0  0  0  0
    8.2908    2.0527    8.0633 O   0  0  0  0  0  0
   -4.2263    3.6613   -4.5613 H   0  0  0  0  0  0
   -4.6817    2.3815   -5.4420 H   0  0  0  0  0  0
   -2.8702    2.0090   -0.5768 H   0  0  0  0  0  0
    0.2957    2.4258   -4.3060 H   0  0  0  0  0  0
    3.8577    1.8959   -1.4303 H   0  0  0  0  0  0
    1.9873    2.8830    0.7147 H   0  0  0  0  0  0
   -0.9297    1.0271    3.3174 H   0  0  0  0  0  0
    9.7478    6.2305    7.8301 H   0  0  0  0  0  0
    7.5831    1.6799    8.6347 H   0  0  0  0  0  0
  1  2  1  0  0  0
  2  3  1  0  0  0
  3  4  1  0  0  0
  4  5  1  0  0  0
  5  6  1  0  0  0
  5  7  1  0  0  0
  7  8  1  0  0  0
  7 39  1  0  0  0
  8  9  1  0  0  0
  8 27  1  0  0  0
  9 10  1  0  0  0
 10 11  1  0  0  0
 10 12  1  0  0  0
 12 13  1  0  0  0
 13 14  1  0  0  0
 13 26  1  0  0  0
 14 15  1  0  0  0
 15 16  1  0  0  0
 16 17  1  0  0  0
 17 18  1  0  0  0
 18 19  1  0  0  0
 18 25  1  0  0  0
 19 20  1  0  0  0
 20 21  1  0  0  0
 20 24  1  0  0  0
 21 22  1  0  0  0
 21 23  1  0  0  0
 23 51  1  0  0  0
 23 52  1  0  0  0
 24 53  1  0  0  0
 25 54  1  0  0  0
 26 55  1  0  0  0
 27 28  1  0  0  0
 28 29  2  0  0  0
 28 30  1  0  0  0
 30 31  1  0  0  0
 31 32  1  0  0  0
 31 36  1  0  0  0
 32 33  1  0  0  0
 33 34  2  0  0  0
 33 35  1  0  0  0
 35 56  1  0  0  0
 36 37  2  0  0  0
 36 38  1  0  0  0
 38 57  1  0  0  0
 39 40  1  0  0  0
 40 41  2  0  0  0
 40 42  1  0  0  0
 42 43  1  0  0  0
 43 44  1  0  0  0
 43 48  1  0  0  0
 44 45  1  0  0  0
 45 46  2  0  0  0
 45 47  1  0  0  0
 47 58  1  0  0  0
 48 49  2  0  0  0
 48 50  1  0  0  0
 50 59  1  0  0  0
M  END
>  <AUTHOR>
    GENERATED BY OPEN BABEL 2.4.1

>  <CHROM.1>
-59.36290366,168.27701263,160.82260358,-72.89952740,100.00680787,65.44008665
-81.69685816,65.56509204,158.71092770,129.43076934,175.22729498,24.15518754
-174.48693122,155.44916309,-58.56832568,105.31642200,169.07880951,-75.54295745
178.97938908,-63.51017801,174.04142749,68.39143886,-56.25759668,-73.99016284
-110.04871555,57.71372421,123.90958869,-18.97323719,-67.12652449,2.73168751
-163.33661484,-166.93540730,131.95277882,119.71224183,-162.47803897,-41.12885728
16.74340319,33.84196151,-166.87695844,4.25814995,1.38893259,1.70841211,-0.63922898
0.07082062,-1.84736296

>  <COMPND>
    UNNAMED

>  <MASTER>
        0    0    0    0    0    0    0    0  109    0  109    0

>  <Name>
FB1.pdb

>  <RI>
0

>  <Rbt.Current_Directory>
/home/fc/tossine/FB1_39/p3/2_clust01

>  <Rbt.Executable>
rbdock/0.1.0

>  <Rbt.Library>
librxdock.so/0.1.0

>  <Rbt.Parameter_File>
/cluster/rxdock/data/scripts/dock.prm

>  <Rbt.Receptor>
rx_3.prm

>  <SCORE>
32.9371

>  <SCORE.INTER>
1.42814

>  <SCORE.INTER.CONST>
1

>  <SCORE.INTER.POLAR>
-5.35927

>  <SCORE.INTER.REPUL>
0.973601

>  <SCORE.INTER.ROT>
32

>  <SCORE.INTER.VDW>
-22.6184

>  <SCORE.INTER.norm>
0.0285627

>  <SCORE.INTRA>
27.6149

>  <SCORE.INTRA.DIHEDRAL>
42.0549

>  <SCORE.INTRA.DIHEDRAL.0>
47.3121

>  <SCORE.INTRA.POLAR>
1.47808

>  <SCORE.INTRA.POLAR.0>
-1.47808

>  <SCORE.INTRA.REPUL>
0

>  <SCORE.INTRA.REPUL.0>
0

>  <SCORE.INTRA.VDW>
1.56202

>  <SCORE.INTRA.VDW.0>
-2.78316

>  <SCORE.INTRA.norm>
0.552298

>  <SCORE.RESTR>
3.89409

>  <SCORE.RESTR.CAVITY>
3.89409

>  <SCORE.RESTR.norm>
0.0778818

>  <SCORE.SYSTEM>
0

>  <SCORE.SYSTEM.CONST>
0

>  <SCORE.SYSTEM.DIHEDRAL>
0

>  <SCORE.SYSTEM.norm>
0

>  <SCORE.heavy>
50

>  <SCORE.norm>
0.658743

$$$$
