FB1.pdb
  RxDock  10072014053D
librxdock.so/0.1.0
 59 58  0  0  0  0  0  0  0  0999 V2000
   -9.7573   11.4658    1.3953 C   0  0  0  0  0  0
   -9.2125   10.3749    2.3143 C   0  0  0  0  0  0
   -7.7810    9.9676    1.9282 C   0  0  0  0  0  0
   -7.7102    9.0993    0.6472 C   0  0  0  0  0  0
   -6.3788    9.2346   -0.1709 C   0  0  0  0  0  0
   -5.2201    8.6851    0.6929 C   0  0  0  0  0  0
   -6.4267    8.5113   -1.5825 C   0  0  0  0  0  0
   -6.4024    6.9096   -1.5783 C   0  0  0  0  0  0
   -5.4636    6.0110   -0.6621 C   0  0  0  0  0  0
   -4.0590    5.5168   -1.3720 C   0  0  0  0  0  0
   -3.1024    5.0450   -0.2782 C   0  0  0  0  0  0
   -4.1955    4.3849   -2.4878 C   0  0  0  0  0  0
   -2.9518    3.5271   -3.0675 C   0  0  0  0  0  0
   -2.0638    2.6132   -2.1551 C   0  0  0  0  0  0
   -0.7936    1.8982   -2.8066 C   0  0  0  0  0  0
    0.3379    1.1703   -1.9794 C   0  0  0  0  0  0
    1.0212    1.9128   -0.8008 C   0  0  0  0  0  0
    2.1367    1.1179   -0.0179 C   0  0  0  0  0  0
    3.1247    1.9602    0.7987 C   0  0  0  0  0  0
    4.1645    1.2210    1.6880 C   0  0  0  0  0  0
    5.2230    0.2749    1.0479 C   0  0  0  0  0  0
    6.1473    0.8960    0.0100 C   0  0  0  0  0  0
    5.9961   -0.4292    2.0885 N   0  0  0  0  0  0
    4.9353    2.2805    2.3102 O   0  0  0  0  0  0
    1.4860    0.1974    0.8647 O   0  0  0  0  0  0
   -3.5351    2.6380   -4.0349 O   0  0  0  0  0  0
   -7.7501    6.4836   -1.2396 O   0  0  0  0  0  0
   -8.3938    5.6981   -2.1418 C   0  0  0  0  0  0
   -8.4288    5.8658   -3.3460 O   0  0  0  0  0  0
   -8.9782    4.5187   -1.4146 C   0  0  0  0  0  0
   -9.5445    4.8963   -0.0365 C   0  0  0  0  0  0
  -11.0707    5.0503   -0.0492 C   0  0  0  0  0  0
  -11.5629    5.7078    1.2192 C   0  0  0  0  0  0
  -12.4356    5.2303    1.9361 O   0  0  0  0  0  0
  -10.9507    6.8699    1.4908 O   0  0  0  0  0  0
   -9.1391    3.7596    0.9120 C   0  0  0  0  0  0
   -8.9989    2.6028    0.5450 O   0  0  0  0  0  0
   -8.9986    4.1309    2.1919 O   0  0  0  0  0  0
   -7.5263    9.0468   -2.4215 O   0  0  0  0  0  0
   -7.7566   10.4125   -2.4131 C   0  0  0  0  0  0
   -6.9396   11.2543   -2.0634 O   0  0  0  0  0  0
   -9.1681   10.7695   -2.8972 C   0  0  0  0  0  0
  -10.3393   10.0453   -2.1634 C   0  0  0  0  0  0
  -11.6593   10.8146   -1.9728 C   0  0  0  0  0  0
  -11.4552   12.2132   -1.4659 C   0  0  0  0  0  0
  -10.6215   13.0074   -1.8792 O   0  0  0  0  0  0
  -12.3172   12.5361   -0.4898 O   0  0  0  0  0  0
  -10.6964    8.6682   -2.7364 C   0  0  0  0  0  0
  -10.3408    7.6265   -2.2215 O   0  0  0  0  0  0
  -11.5279    8.6808   -3.7992 O   0  0  0  0  0  0
    6.8116   -0.8657    1.6608 H   0  0  0  0  0  0
    5.4352   -1.2079    2.4415 H   0  0  0  0  0  0
    5.2927    2.7994    1.5589 H   0  0  0  0  0  0
    0.9698   -0.4289    0.3244 H   0  0  0  0  0  0
   -3.8368    3.1709   -4.7895 H   0  0  0  0  0  0
  -10.0938    7.0042    1.0423 H   0  0  0  0  0  0
   -8.7894    3.3899    2.8132 H   0  0  0  0  0  0
  -12.1015   13.4524   -0.2157 H   0  0  0  0  0  0
  -11.9322    9.5527   -4.0055 H   0  0  0  0  0  0
  1  2  1  0  0  0
  2  3  1  0  0  0
  3  4  1  0  0  0
  4  5  1  0  0  0
  5  6  1  0  0  0
  5  7  1  0  0  0
  7  8  1  0  0  0
  7 39  1  0  0  0
  8  9  1  0  0  0
  8 27  1  0  0  0
  9 10  1  0  0  0
 10 11  1  0  0  0
 10 12  1  0  0  0
 12 13  1  0  0  0
 13 14  1  0  0  0
 13 26  1  0  0  0
 14 15  1  0  0  0
 15 16  1  0  0  0
 16 17  1  0  0  0
 17 18  1  0  0  0
 18 19  1  0  0  0
 18 25  1  0  0  0
 19 20  1  0  0  0
 20 21  1  0  0  0
 20 24  1  0  0  0
 21 22  1  0  0  0
 21 23  1  0  0  0
 23 51  1  0  0  0
 23 52  1  0  0  0
 24 53  1  0  0  0
 25 54  1  0  0  0
 26 55  1  0  0  0
 27 28  1  0  0  0
 28 29  2  0  0  0
 28 30  1  0  0  0
 30 31  1  0  0  0
 31 32  1  0  0  0
 31 36  1  0  0  0
 32 33  1  0  0  0
 33 34  2  0  0  0
 33 35  1  0  0  0
 35 56  1  0  0  0
 36 37  2  0  0  0
 36 38  1  0  0  0
 38 57  1  0  0  0
 39 40  1  0  0  0
 40 41  2  0  0  0
 40 42  1  0  0  0
 42 43  1  0  0  0
 43 44  1  0  0  0
 43 48  1  0  0  0
 44 45  1  0  0  0
 45 46  2  0  0  0
 45 47  1  0  0  0
 47 58  1  0  0  0
 48 49  2  0  0  0
 48 50  1  0  0  0
 50 59  1  0  0  0
M  END
>  <AUTHOR>
    GENERATED BY OPEN BABEL 2.4.1

>  <CHROM.1>
-74.43830613,151.42735438,65.20762453,-71.78830492,-42.96165547,40.72182814
-95.21919920,121.13429313,163.19683491,-165.72212922,60.64458570,-175.35974910
68.91194559,168.32249169,-51.15486316,179.69712919,159.85479188,174.68976740
62.17237640,62.03649519,58.41202539,-57.00913870,-166.92224883,-44.42966480
38.59505920,100.57843966,-167.56814040,-30.47442145,-126.72347007,-19.59856555
176.59104948,20.20243990,53.53239593,146.34623130,-46.53207877,101.45418038
44.91865666,179.18855708,-9.45646966,-5.73319362,6.03139122,-0.65510953,-2.58450822
-0.00930949,2.98780265

>  <COMPND>
    UNNAMED

>  <MASTER>
        0    0    0    0    0    0    0    0  109    0  109    0

>  <Name>
FB1.pdb

>  <RI>
0

>  <Rbt.Current_Directory>
/home/fc/tossine/FB1_39/p3/2_clust01

>  <Rbt.Executable>
rbdock/0.1.0

>  <Rbt.Library>
librxdock.so/0.1.0

>  <Rbt.Parameter_File>
/cluster/rxdock/data/scripts/dock.prm

>  <Rbt.Receptor>
rx_4.prm

>  <SCORE>
20.4934

>  <SCORE.INTER>
8.14783

>  <SCORE.INTER.CONST>
1

>  <SCORE.INTER.POLAR>
-1.44567

>  <SCORE.INTER.REPUL>
0.595752

>  <SCORE.INTER.ROT>
32

>  <SCORE.INTER.VDW>
-27.3157

>  <SCORE.INTER.norm>
0.162957

>  <SCORE.INTRA>
11.7337

>  <SCORE.INTRA.DIHEDRAL>
13.4935

>  <SCORE.INTRA.DIHEDRAL.0>
47.3121

>  <SCORE.INTRA.POLAR>
1.47808

>  <SCORE.INTRA.POLAR.0>
-1.47808

>  <SCORE.INTRA.REPUL>
0

>  <SCORE.INTRA.REPUL.0>
0

>  <SCORE.INTRA.VDW>
-0.038499

>  <SCORE.INTRA.VDW.0>
-2.78316

>  <SCORE.INTRA.norm>
0.234674

>  <SCORE.RESTR>
0.611915

>  <SCORE.RESTR.CAVITY>
0.611915

>  <SCORE.RESTR.norm>
0.0122383

>  <SCORE.SYSTEM>
0

>  <SCORE.SYSTEM.CONST>
0

>  <SCORE.SYSTEM.DIHEDRAL>
0

>  <SCORE.SYSTEM.norm>
0

>  <SCORE.heavy>
50

>  <SCORE.norm>
0.409869

$$$$
