FB1.pdb
  RxDock  10072014053D
librxdock.so/0.1.0
 59 58  0  0  0  0  0  0  0  0999 V2000
    8.1060   -1.1501   -1.6535 C   0  0  0  0  0  0
    6.6005   -1.1841   -1.4018 C   0  0  0  0  0  0
    6.2180   -2.2702   -0.3828 C   0  0  0  0  0  0
    6.5529   -1.8893    1.0809 C   0  0  0  0  0  0
    5.5108   -0.9433    1.7733 C   0  0  0  0  0  0
    4.9834   -1.6493    3.0438 C   0  0  0  0  0  0
    6.0915    0.4918    2.1213 C   0  0  0  0  0  0
    6.2385    1.5286    0.9090 C   0  0  0  0  0  0
    5.1411    2.5961    0.4797 C   0  0  0  0  0  0
    3.7140    1.9586   -0.0479 C   0  0  0  0  0  0
    3.9739    0.5410   -0.5548 C   0  0  0  0  0  0
    2.5196    1.9380    1.0094 C   0  0  0  0  0  0
    0.9687    1.6863    0.6219 C   0  0  0  0  0  0
   -0.2098    2.0704    1.5808 C   0  0  0  0  0  0
   -1.7040    1.9446    1.0325 C   0  0  0  0  0  0
   -2.2958    2.8182   -0.1428 C   0  0  0  0  0  0
   -2.9222    4.2020    0.1736 C   0  0  0  0  0  0
   -3.7667    4.8740   -0.9772 C   0  0  0  0  0  0
   -4.3958    3.9225   -2.0026 C   0  0  0  0  0  0
   -5.7389    4.3380   -2.6672 C   0  0  0  0  0  0
   -7.0944    4.0637   -1.9511 C   0  0  0  0  0  0
   -7.3513    2.6283   -1.5139 C   0  0  0  0  0  0
   -7.2951    5.0005   -0.8293 N   0  0  0  0  0  0
   -5.6607    5.7818   -2.7826 O   0  0  0  0  0  0
   -4.8109    5.6414   -0.3684 O   0  0  0  0  0  0
    0.7539    2.4648   -0.5673 O   0  0  0  0  0  0
    7.4211    2.3236    1.1954 O   0  0  0  0  0  0
    8.6153    1.6762    1.1923 C   0  0  0  0  0  0
    8.8135    0.5341    0.8237 O   0  0  0  0  0  0
    9.6818    2.6427    1.6278 C   0  0  0  0  0  0
   10.9852    1.9384    2.0372 C   0  0  0  0  0  0
   12.1120    2.9276    2.3618 C   0  0  0  0  0  0
   11.7584    3.7840    3.5554 C   0  0  0  0  0  0
   11.3416    3.3307    4.6159 O   0  0  0  0  0  0
   11.9457    5.0955    3.3464 O   0  0  0  0  0  0
   10.6425    1.1061    3.2805 C   0  0  0  0  0  0
    9.5390    1.1133    3.8045 O   0  0  0  0  0  0
   11.6708    0.4048    3.7773 O   0  0  0  0  0  0
    5.3831    1.0897    3.2792 O   0  0  0  0  0  0
    5.7699    2.3477    3.7104 C   0  0  0  0  0  0
    6.8581    2.8587    3.4801 O   0  0  0  0  0  0
    4.6729    3.0496    4.5218 C   0  0  0  0  0  0
    4.4933    2.5526    5.9899 C   0  0  0  0  0  0
    4.1683    1.0646    6.2152 C   0  0  0  0  0  0
    2.9849    0.5956    5.4190 C   0  0  0  0  0  0
    2.0148    1.2759    5.1146 O   0  0  0  0  0  0
    3.0980   -0.6860    5.0381 O   0  0  0  0  0  0
    5.6506    2.9109    6.9304 C   0  0  0  0  0  0
    6.7754    3.1444    6.5341 O   0  0  0  0  0  0
    5.3171    3.0571    8.2298 O   0  0  0  0  0  0
   -7.2571    5.9561   -1.1812 H   0  0  0  0  0  0
   -6.4992    4.9226   -0.1922 H   0  0  0  0  0  0
   -5.1793    5.9364   -3.6226 H   0  0  0  0  0  0
   -5.2354    6.1806   -1.0609 H   0  0  0  0  0  0
   -0.0000    2.0812   -1.0458 H   0  0  0  0  0  0
   11.7513    5.6712    4.1108 H   0  0  0  0  0  0
   12.4829    0.4119    3.2123 H   0  0  0  0  0  0
    2.2485   -0.9292    4.6133 H   0  0  0  0  0  0
    6.0491    3.3403    8.8217 H   0  0  0  0  0  0
  1  2  1  0  0  0
  2  3  1  0  0  0
  3  4  1  0  0  0
  4  5  1  0  0  0
  5  6  1  0  0  0
  5  7  1  0  0  0
  7  8  1  0  0  0
  7 39  1  0  0  0
  8  9  1  0  0  0
  8 27  1  0  0  0
  9 10  1  0  0  0
 10 11  1  0  0  0
 10 12  1  0  0  0
 12 13  1  0  0  0
 13 14  1  0  0  0
 13 26  1  0  0  0
 14 15  1  0  0  0
 15 16  1  0  0  0
 16 17  1  0  0  0
 17 18  1  0  0  0
 18 19  1  0  0  0
 18 25  1  0  0  0
 19 20  1  0  0  0
 20 21  1  0  0  0
 20 24  1  0  0  0
 21 22  1  0  0  0
 21 23  1  0  0  0
 23 51  1  0  0  0
 23 52  1  0  0  0
 24 53  1  0  0  0
 25 54  1  0  0  0
 26 55  1  0  0  0
 27 28  1  0  0  0
 28 29  2  0  0  0
 28 30  1  0  0  0
 30 31  1  0  0  0
 31 32  1  0  0  0
 31 36  1  0  0  0
 32 33  1  0  0  0
 33 34  2  0  0  0
 33 35  1  0  0  0
 35 56  1  0  0  0
 36 37  2  0  0  0
 36 38  1  0  0  0
 38 57  1  0  0  0
 39 40  1  0  0  0
 40 41  2  0  0  0
 40 42  1  0  0  0
 42 43  1  0  0  0
 43 44  1  0  0  0
 43 48  1  0  0  0
 44 45  1  0  0  0
 45 46  2  0  0  0
 45 47  1  0  0  0
 47 58  1  0  0  0
 48 49  2  0  0  0
 48 50  1  0  0  0
 50 59  1  0  0  0
M  END
>  <AUTHOR>
    GENERATED BY OPEN BABEL 2.4.1

>  <CHROM.1>
75.69167488,80.56768939,122.13343360,76.87984069,92.72727040,-179.87993619
-63.41112227,65.62926171,-23.86034613,165.22161479,-162.01578589,172.68403721
156.57030481,-65.23625092,-86.83331176,-167.06421392,25.77152600,149.17189959
170.17281994,-83.78722234,-53.84042260,85.12523588,57.58353678,9.12232890
163.95321438,174.90794144,63.35895689,-2.88918586,49.50740384,-178.19167319
-8.06164353,-21.31636377,76.55924494,-58.31200638,-52.71430498,-23.44976889
-31.96909559,174.09237956,-176.42063019,3.89417219,2.05662684,1.85336034
-0.23884125,0.22911317,-1.83750014

>  <COMPND>
    UNNAMED

>  <MASTER>
        0    0    0    0    0    0    0    0  109    0  109    0

>  <Name>
FB1.pdb

>  <RI>
0

>  <Rbt.Current_Directory>
/home/fc/tossine/FB1_39/p3/2_clust01

>  <Rbt.Executable>
rbdock/0.1.0

>  <Rbt.Library>
librxdock.so/0.1.0

>  <Rbt.Parameter_File>
/cluster/rxdock/data/scripts/dock.prm

>  <Rbt.Receptor>
rx_4.prm

>  <SCORE>
0.66025

>  <SCORE.INTER>
-4.64944

>  <SCORE.INTER.CONST>
1

>  <SCORE.INTER.POLAR>
-2.0737

>  <SCORE.INTER.REPUL>
0.704391

>  <SCORE.INTER.ROT>
32

>  <SCORE.INTER.VDW>
-38.5208

>  <SCORE.INTER.norm>
-0.0929888

>  <SCORE.INTRA>
4.86926

>  <SCORE.INTRA.DIHEDRAL>
6.39912

>  <SCORE.INTRA.DIHEDRAL.0>
47.3121

>  <SCORE.INTRA.POLAR>
0.351731

>  <SCORE.INTRA.POLAR.0>
-1.47808

>  <SCORE.INTRA.REPUL>
0.00840739

>  <SCORE.INTRA.REPUL.0>
0

>  <SCORE.INTRA.VDW>
0.431777

>  <SCORE.INTRA.VDW.0>
-2.78316

>  <SCORE.INTRA.norm>
0.0973852

>  <SCORE.RESTR>
0.440428

>  <SCORE.RESTR.CAVITY>
0.440428

>  <SCORE.RESTR.norm>
0.00880856

>  <SCORE.SYSTEM>
0

>  <SCORE.SYSTEM.CONST>
0

>  <SCORE.SYSTEM.DIHEDRAL>
0

>  <SCORE.SYSTEM.norm>
0

>  <SCORE.heavy>
50

>  <SCORE.norm>
0.013205

$$$$
