FB1.pdb
  RxDock  10072011483D
librxdock.so/0.1.0
 59 58  0  0  0  0  0  0  0  0999 V2000
  -13.9501    6.5622   -2.8273 C   0  0  0  0  0  0
  -12.7280    6.4125   -1.9243 C   0  0  0  0  0  0
  -11.5758    7.3284   -2.3690 C   0  0  0  0  0  0
  -10.2832    7.1437   -1.5355 C   0  0  0  0  0  0
  -10.4505    7.3808    0.0060 C   0  0  0  0  0  0
  -10.4574    6.0047    0.7109 C   0  0  0  0  0  0
   -9.3395    8.3299    0.6249 C   0  0  0  0  0  0
   -7.8206    8.0366    0.2089 C   0  0  0  0  0  0
   -7.1940    6.5913   -0.0079 C   0  0  0  0  0  0
   -5.6710    6.5771   -0.6415 C   0  0  0  0  0  0
   -4.9197    7.8034   -0.1260 C   0  0  0  0  0  0
   -4.8068    5.2651   -0.3653 C   0  0  0  0  0  0
   -3.1890    5.2278   -0.3623 C   0  0  0  0  0  0
   -2.3704    4.3625    0.6561 C   0  0  0  0  0  0
   -1.9404    2.8873    0.2225 C   0  0  0  0  0  0
   -1.3703    1.7997    1.2158 C   0  0  0  0  0  0
   -0.2785    2.1998    2.2431 C   0  0  0  0  0  0
    1.2026    1.7797    1.8982 C   0  0  0  0  0  0
    1.7444    0.5422    2.6245 C   0  0  0  0  0  0
    1.0060   -0.8118    2.4253 C   0  0  0  0  0  0
    1.7050   -1.9940    1.6910 C   0  0  0  0  0  0
    2.3074   -1.6835    0.3278 C   0  0  0  0  0  0
    2.6952   -2.6461    2.5689 N   0  0  0  0  0  0
    0.7601   -1.2977    3.7697 O   0  0  0  0  0  0
    1.2791    1.5489    0.4873 O   0  0  0  0  0  0
   -2.8286    4.7223   -1.6589 O   0  0  0  0  0  0
   -7.6085    8.7145   -1.0591 O   0  0  0  0  0  0
   -7.1151    9.9791   -1.0074 C   0  0  0  0  0  0
   -7.0918   10.7029   -0.0302 O   0  0  0  0  0  0
   -6.5043   10.3066   -2.3420 C   0  0  0  0  0  0
   -7.4608   11.0941   -3.2517 C   0  0  0  0  0  0
   -8.9028   10.5759   -3.1787 C   0  0  0  0  0  0
   -8.9989    9.1573   -3.6901 C   0  0  0  0  0  0
   -8.2038    8.2730   -3.3907 O   0  0  0  0  0  0
  -10.0432    8.9531   -4.5065 O   0  0  0  0  0  0
   -7.4005   12.5496   -2.7680 C   0  0  0  0  0  0
   -8.3069   13.0843   -2.1477 O   0  0  0  0  0  0
   -6.2878   13.2055   -3.1255 O   0  0  0  0  0  0
   -9.6967    9.7585    0.4481 O   0  0  0  0  0  0
  -10.8770   10.2171    1.0090 C   0  0  0  0  0  0
  -11.7599    9.4981    1.4584 O   0  0  0  0  0  0
  -10.9664   11.7489    1.0101 C   0  0  0  0  0  0
  -10.3625   12.4635   -0.2385 C   0  0  0  0  0  0
  -11.2318   12.5640   -1.5053 C   0  0  0  0  0  0
  -12.5046   13.3291   -1.2841 C   0  0  0  0  0  0
  -12.6198   14.3424   -0.6083 O   0  0  0  0  0  0
  -13.5466   12.7913   -1.9362 O   0  0  0  0  0  0
   -9.8011   13.8638    0.0377 C   0  0  0  0  0  0
  -10.0477   14.8244   -0.6645 O   0  0  0  0  0  0
   -9.0944   13.9896    1.1805 O   0  0  0  0  0  0
    2.8971   -3.5783    2.2100 H   0  0  0  0  0  0
    2.2670   -2.8032    3.4840 H   0  0  0  0  0  0
    0.1367   -0.6474    4.1568 H   0  0  0  0  0  0
    0.7478    0.7583    0.2792 H   0  0  0  0  0  0
   -1.9684    5.1037   -1.9019 H   0  0  0  0  0  0
  -10.1886    8.0250   -4.7729 H   0  0  0  0  0  0
   -5.6223   12.6528   -3.6053 H   0  0  0  0  0  0
  -13.1927   12.0458   -2.4657 H   0  0  0  0  0  0
   -8.7310   14.8866    1.3527 H   0  0  0  0  0  0
  1  2  1  0  0  0
  2  3  1  0  0  0
  3  4  1  0  0  0
  4  5  1  0  0  0
  5  6  1  0  0  0
  5  7  1  0  0  0
  7  8  1  0  0  0
  7 39  1  0  0  0
  8  9  1  0  0  0
  8 27  1  0  0  0
  9 10  1  0  0  0
 10 11  1  0  0  0
 10 12  1  0  0  0
 12 13  1  0  0  0
 13 14  1  0  0  0
 13 26  1  0  0  0
 14 15  1  0  0  0
 15 16  1  0  0  0
 16 17  1  0  0  0
 17 18  1  0  0  0
 18 19  1  0  0  0
 18 25  1  0  0  0
 19 20  1  0  0  0
 20 21  1  0  0  0
 20 24  1  0  0  0
 21 22  1  0  0  0
 21 23  1  0  0  0
 23 51  1  0  0  0
 23 52  1  0  0  0
 24 53  1  0  0  0
 25 54  1  0  0  0
 26 55  1  0  0  0
 27 28  1  0  0  0
 28 29  2  0  0  0
 28 30  1  0  0  0
 30 31  1  0  0  0
 31 32  1  0  0  0
 31 36  1  0  0  0
 32 33  1  0  0  0
 33 34  2  0  0  0
 33 35  1  0  0  0
 35 56  1  0  0  0
 36 37  2  0  0  0
 36 38  1  0  0  0
 38 57  1  0  0  0
 39 40  1  0  0  0
 40 41  2  0  0  0
 40 42  1  0  0  0
 42 43  1  0  0  0
 43 44  1  0  0  0
 43 48  1  0  0  0
 44 45  1  0  0  0
 45 46  2  0  0  0
 45 47  1  0  0  0
 47 58  1  0  0  0
 48 49  2  0  0  0
 48 50  1  0  0  0
 50 59  1  0  0  0
M  END
>  <AUTHOR>
    GENERATED BY OPEN BABEL 2.4.1

>  <CHROM.1>
-176.31899118,-57.87231568,104.47835976,-46.29617905,-37.09275687,59.80970292
171.60042506,92.48399886,33.47167616,-155.32294515,141.76919225,92.75586422
150.00126015,-167.51258731,-45.31698979,-102.18945986,-101.20999951,59.89061915
-67.53939592,113.86611294,-51.80104152,65.39388527,160.58019371,-16.40187596
97.00858327,-40.84228215,-63.85292546,-106.99375209,44.53602957,-173.47008257
-3.69844624,-12.34704190,36.75614174,82.29966563,60.82928154,-132.93048258
39.71562155,-4.21684488,179.64495343,-6.67858532,7.51566300,-0.44070904,2.34722660
-0.12150389,-0.12905576

>  <COMPND>
    UNNAMED

>  <MASTER>
        0    0    0    0    0    0    0    0  109    0  109    0

>  <Name>
FB1.pdb

>  <RI>
0

>  <Rbt.Current_Directory>
/home/fc/tossine/FB1_39/p3/2_clust01

>  <Rbt.Executable>
rbdock/0.1.0

>  <Rbt.Library>
librxdock.so/0.1.0

>  <Rbt.Parameter_File>
/cluster/rxdock/data/scripts/dock.prm

>  <Rbt.Receptor>
rx_1.prm

>  <SCORE>
12.7509

>  <SCORE.INTER>
-2.34685

>  <SCORE.INTER.CONST>
1

>  <SCORE.INTER.POLAR>
-4.48987

>  <SCORE.INTER.REPUL>
0.772435

>  <SCORE.INTER.ROT>
32

>  <SCORE.INTER.VDW>
-28.3435

>  <SCORE.INTER.norm>
-0.0469371

>  <SCORE.INTRA>
14.7265

>  <SCORE.INTRA.DIHEDRAL>
17.5203

>  <SCORE.INTRA.DIHEDRAL.0>
47.3121

>  <SCORE.INTRA.POLAR>
1.32294

>  <SCORE.INTRA.POLAR.0>
-1.47808

>  <SCORE.INTRA.REPUL>
0

>  <SCORE.INTRA.REPUL.0>
0

>  <SCORE.INTRA.VDW>
1.46832

>  <SCORE.INTRA.VDW.0>
-2.78316

>  <SCORE.INTRA.norm>
0.294529

>  <SCORE.RESTR>
0.371298

>  <SCORE.RESTR.CAVITY>
0.371298

>  <SCORE.RESTR.norm>
0.00742596

>  <SCORE.SYSTEM>
0

>  <SCORE.SYSTEM.CONST>
0

>  <SCORE.SYSTEM.DIHEDRAL>
0

>  <SCORE.SYSTEM.norm>
0

>  <SCORE.heavy>
50

>  <SCORE.norm>
0.255018

$$$$
