FB1.pdb
  RxDock  10072011503D
librxdock.so/0.1.0
 59 58  0  0  0  0  0  0  0  0999 V2000
   12.6016    0.5449    9.9934 C   0  0  0  0  0  0
   11.1708    0.3803   10.5002 C   0  0  0  0  0  0
   10.3579    1.6758   10.3414 C   0  0  0  0  0  0
   10.5757    2.3782    8.9780 C   0  0  0  0  0  0
    9.6805    3.6431    8.7351 C   0  0  0  0  0  0
   10.5527    4.9026    8.9435 C   0  0  0  0  0  0
    8.9866    3.6632    7.3082 C   0  0  0  0  0  0
    9.9391    3.4667    6.0352 C   0  0  0  0  0  0
   10.2708    2.0721    5.3473 C   0  0  0  0  0  0
   11.0729    2.1746    3.9095 C   0  0  0  0  0  0
   11.7936    0.8507    3.6605 C   0  0  0  0  0  0
   10.1883    2.5498    2.6361 C   0  0  0  0  0  0
   10.7135    2.4609    1.1080 C   0  0  0  0  0  0
   10.5110    1.1833    0.2231 C   0  0  0  0  0  0
    9.0202    0.6868   -0.0601 C   0  0  0  0  0  0
    8.0005    1.4319   -1.0085 C   0  0  0  0  0  0
    6.6941    0.7148   -1.4407 C   0  0  0  0  0  0
    5.4521    0.8722   -0.4806 C   0  0  0  0  0  0
    4.4203   -0.2622   -0.5130 C   0  0  0  0  0  0
    4.3501   -1.1590   -1.7815 C   0  0  0  0  0  0
    3.8218   -2.6211   -1.6887 C   0  0  0  0  0  0
    2.3923   -2.7949   -1.1951 C   0  0  0  0  0  0
    4.0309   -3.3372   -2.9615 N   0  0  0  0  0  0
    3.4195   -0.4787   -2.6617 O   0  0  0  0  0  0
    5.9425    1.0028    0.8582 O   0  0  0  0  0  0
   10.0168    3.5109    0.4161 O   0  0  0  0  0  0
    9.3609    4.2659    4.9678 O   0  0  0  0  0  0
   10.1712    5.1796    4.3730 C   0  0  0  0  0  0
   11.3487    5.0315    4.1067 O   0  0  0  0  0  0
    9.3439    6.3791    4.0015 C   0  0  0  0  0  0
   10.0013    7.7031    4.4225 C   0  0  0  0  0  0
    9.0256    8.6417    5.1438 C   0  0  0  0  0  0
    9.7532    9.8103    5.7667 C   0  0  0  0  0  0
   10.9498   10.0267    5.6085 O   0  0  0  0  0  0
    8.9625   10.5958    6.5129 O   0  0  0  0  0  0
   11.1543    7.3217    5.3612 C   0  0  0  0  0  0
   10.9895    7.0328    6.5367 O   0  0  0  0  0  0
   12.3687    7.3794    4.7974 O   0  0  0  0  0  0
    7.8152    2.7543    7.2696 O   0  0  0  0  0  0
    6.9137    2.8849    6.2263 C   0  0  0  0  0  0
    7.1098    3.5465    5.2153 O   0  0  0  0  0  0
    5.6188    2.0994    6.4719 C   0  0  0  0  0  0
    4.4017    2.5050    5.5838 C   0  0  0  0  0  0
    4.6159    2.5983    4.0620 C   0  0  0  0  0  0
    3.7339    3.6220    3.4072 C   0  0  0  0  0  0
    2.8946    3.3950    2.5466 O   0  0  0  0  0  0
    3.9431    4.8591    3.8827 O   0  0  0  0  0  0
    3.1378    1.6669    5.8127 C   0  0  0  0  0  0
    2.0373    2.1595    5.9640 O   0  0  0  0  0  0
    3.3059    0.3304    5.7292 O   0  0  0  0  0  0
    3.2141   -3.2061   -3.5566 H   0  0  0  0  0  0
    4.0593   -4.3413   -2.7705 H   0  0  0  0  0  0
    3.7808    0.4286   -2.7490 H   0  0  0  0  0  0
    5.1765    1.0738    1.4571 H   0  0  0  0  0  0
   10.6767    4.1451    0.0895 H   0  0  0  0  0  0
    9.4272   11.2715    7.0429 H   0  0  0  0  0  0
   12.4021    7.8822    3.9460 H   0  0  0  0  0  0
    4.7822    4.8278    4.3888 H   0  0  0  0  0  0
    2.5402   -0.2084    6.0286 H   0  0  0  0  0  0
  1  2  1  0  0  0
  2  3  1  0  0  0
  3  4  1  0  0  0
  4  5  1  0  0  0
  5  6  1  0  0  0
  5  7  1  0  0  0
  7  8  1  0  0  0
  7 39  1  0  0  0
  8  9  1  0  0  0
  8 27  1  0  0  0
  9 10  1  0  0  0
 10 11  1  0  0  0
 10 12  1  0  0  0
 12 13  1  0  0  0
 13 14  1  0  0  0
 13 26  1  0  0  0
 14 15  1  0  0  0
 15 16  1  0  0  0
 16 17  1  0  0  0
 17 18  1  0  0  0
 18 19  1  0  0  0
 18 25  1  0  0  0
 19 20  1  0  0  0
 20 21  1  0  0  0
 20 24  1  0  0  0
 21 22  1  0  0  0
 21 23  1  0  0  0
 23 51  1  0  0  0
 23 52  1  0  0  0
 24 53  1  0  0  0
 25 54  1  0  0  0
 26 55  1  0  0  0
 27 28  1  0  0  0
 28 29  2  0  0  0
 28 30  1  0  0  0
 30 31  1  0  0  0
 31 32  1  0  0  0
 31 36  1  0  0  0
 32 33  1  0  0  0
 33 34  2  0  0  0
 33 35  1  0  0  0
 35 56  1  0  0  0
 36 37  2  0  0  0
 36 38  1  0  0  0
 38 57  1  0  0  0
 39 40  1  0  0  0
 40 41  2  0  0  0
 40 42  1  0  0  0
 42 43  1  0  0  0
 43 44  1  0  0  0
 43 48  1  0  0  0
 44 45  1  0  0  0
 45 46  2  0  0  0
 45 47  1  0  0  0
 47 58  1  0  0  0
 48 49  2  0  0  0
 48 50  1  0  0  0
 50 59  1  0  0  0
M  END
>  <AUTHOR>
    GENERATED BY OPEN BABEL 2.4.1

>  <CHROM.1>
43.25953764,175.51260732,103.27065922,-52.64413678,92.04446330,164.77399172
170.29590061,125.20137246,157.66446087,-169.29407694,92.45745818,59.90524319
117.35799895,71.66041455,167.38618653,87.75749373,-153.23717030,-22.66299442
-178.35299185,153.79184583,60.27265054,54.66887684,-89.97301599,38.79902925
132.62364420,-132.35371310,169.44224270,-79.41695589,5.83303660,170.50115962
15.63424400,12.20340141,162.79159664,50.05399670,-149.49280089,132.42289906
-118.84940534,13.85802475,169.72894434,7.87175747,3.03753964,3.95181692,0.72734903
0.77825532,1.53102737

>  <COMPND>
    UNNAMED

>  <MASTER>
        0    0    0    0    0    0    0    0  109    0  109    0

>  <Name>
FB1.pdb

>  <RI>
0

>  <Rbt.Current_Directory>
/home/fc/tossine/FB1_39/p3/2_clust01

>  <Rbt.Executable>
rbdock/0.1.0

>  <Rbt.Library>
librxdock.so/0.1.0

>  <Rbt.Parameter_File>
/cluster/rxdock/data/scripts/dock.prm

>  <Rbt.Receptor>
rx_1.prm

>  <SCORE>
28.2611

>  <SCORE.INTER>
2.54334

>  <SCORE.INTER.CONST>
1

>  <SCORE.INTER.POLAR>
-2.18985

>  <SCORE.INTER.REPUL>
1.05095

>  <SCORE.INTER.ROT>
32

>  <SCORE.INTER.VDW>
-32.6659

>  <SCORE.INTER.norm>
0.0508669

>  <SCORE.INTRA>
25.0652

>  <SCORE.INTRA.DIHEDRAL>
30.9186

>  <SCORE.INTRA.DIHEDRAL.0>
47.3121

>  <SCORE.INTRA.POLAR>
1.47808

>  <SCORE.INTRA.POLAR.0>
-1.47808

>  <SCORE.INTRA.REPUL>
0

>  <SCORE.INTRA.REPUL.0>
0

>  <SCORE.INTRA.VDW>
4.58037

>  <SCORE.INTRA.VDW.0>
-2.78316

>  <SCORE.INTRA.norm>
0.501303

>  <SCORE.RESTR>
0.652584

>  <SCORE.RESTR.CAVITY>
0.652584

>  <SCORE.RESTR.norm>
0.0130517

>  <SCORE.SYSTEM>
0

>  <SCORE.SYSTEM.CONST>
0

>  <SCORE.SYSTEM.DIHEDRAL>
0

>  <SCORE.SYSTEM.norm>
0

>  <SCORE.heavy>
50

>  <SCORE.norm>
0.565222

$$$$
