FB1.pdb
  RxDock  10072014063D
librxdock.so/0.1.0
 59 58  0  0  0  0  0  0  0  0999 V2000
    8.1384    3.5254   -1.8747 C   0  0  0  0  0  0
    9.3569    3.8123   -1.0004 C   0  0  0  0  0  0
    9.2258    3.1662    0.3887 C   0  0  0  0  0  0
    9.3958    1.6266    0.3722 C   0  0  0  0  0  0
    8.6274    0.8639    1.5073 C   0  0  0  0  0  0
    9.4454    0.9854    2.8137 C   0  0  0  0  0  0
    7.1403    1.3754    1.7193 C   0  0  0  0  0  0
    6.9578    2.8135    2.4011 C   0  0  0  0  0  0
    5.7753    3.2163    3.3848 C   0  0  0  0  0  0
    5.3566    2.0609    4.4853 C   0  0  0  0  0  0
    4.5392    2.7209    5.5945 C   0  0  0  0  0  0
    4.5632    0.8004    3.9139 C   0  0  0  0  0  0
    3.0272    0.8484    3.4070 C   0  0  0  0  0  0
    2.3383    2.1757    2.9381 C   0  0  0  0  0  0
    0.7635    2.1600    2.6759 C   0  0  0  0  0  0
    0.0722    1.4259    1.4603 C   0  0  0  0  0  0
    0.1704    2.0413    0.0394 C   0  0  0  0  0  0
   -1.0493    2.9232   -0.4334 C   0  0  0  0  0  0
   -2.1821    2.1842   -1.1568 C   0  0  0  0  0  0
   -3.1273    3.0053   -2.0790 C   0  0  0  0  0  0
   -4.3799    2.3399   -2.7221 C   0  0  0  0  0  0
   -5.2232    3.2215   -3.6325 C   0  0  0  0  0  0
   -4.0169    1.0794   -3.3974 N   0  0  0  0  0  0
   -3.6552    4.0525   -1.2254 O   0  0  0  0  0  0
   -1.5948    3.5762    0.7180 O   0  0  0  0  0  0
    2.9888   -0.0193    2.2614 O   0  0  0  0  0  0
    8.1656    3.0533    3.1733 O   0  0  0  0  0  0
    8.2451    4.2319    3.8440 C   0  0  0  0  0  0
    7.5337    5.2042    3.6768 O   0  0  0  0  0  0
    9.3003    4.1039    4.9078 C   0  0  0  0  0  0
    9.5817    5.4348    5.6233 C   0  0  0  0  0  0
   10.6066    5.2893    6.7554 C   0  0  0  0  0  0
   10.1111    4.3389    7.8205 C   0  0  0  0  0  0
    8.9243    4.1642    8.0748 O   0  0  0  0  0  0
   11.0972    3.6980    8.4654 O   0  0  0  0  0  0
   10.1201    6.3870    4.5465 C   0  0  0  0  0  0
   10.7033    6.0001    3.5452 O   0  0  0  0  0  0
    9.9415    7.6871    4.8184 O   0  0  0  0  0  0
    6.3476    1.2487    0.4721 O   0  0  0  0  0  0
    5.0435    1.7151    0.4698 C   0  0  0  0  0  0
    4.5623    2.4417    1.3294 O   0  0  0  0  0  0
    4.2481    1.2187   -0.7448 C   0  0  0  0  0  0
    3.8656   -0.2939   -0.7318 C   0  0  0  0  0  0
    2.3890   -0.6686   -0.9549 C   0  0  0  0  0  0
    1.8835   -0.2774   -2.3136 C   0  0  0  0  0  0
    1.8427   -1.0048   -3.2963 O   0  0  0  0  0  0
    1.4439    0.9897   -2.3523 O   0  0  0  0  0  0
    4.7024   -1.1713   -1.6711 C   0  0  0  0  0  0
    5.6079   -0.7325   -2.3524 O   0  0  0  0  0  0
    4.4398   -2.4939   -1.6156 O   0  0  0  0  0  0
   -3.0503    1.1370   -3.7151 H   0  0  0  0  0  0
   -4.5708    0.9958   -4.2527 H   0  0  0  0  0  0
   -3.9345    3.5876   -0.4086 H   0  0  0  0  0  0
   -0.9189    4.1828    1.0724 H   0  0  0  0  0  0
    2.0583   -0.1461    2.0113 H   0  0  0  0  0  0
   11.9914    3.8308    8.0965 H   0  0  0  0  0  0
   10.3486    8.3034    4.1602 H   0  0  0  0  0  0
    2.0480    1.4789   -2.9499 H   0  0  0  0  0  0
    3.9525   -2.7918   -0.8156 H   0  0  0  0  0  0
  1  2  1  0  0  0
  2  3  1  0  0  0
  3  4  1  0  0  0
  4  5  1  0  0  0
  5  6  1  0  0  0
  5  7  1  0  0  0
  7  8  1  0  0  0
  7 39  1  0  0  0
  8  9  1  0  0  0
  8 27  1  0  0  0
  9 10  1  0  0  0
 10 11  1  0  0  0
 10 12  1  0  0  0
 12 13  1  0  0  0
 13 14  1  0  0  0
 13 26  1  0  0  0
 14 15  1  0  0  0
 15 16  1  0  0  0
 16 17  1  0  0  0
 17 18  1  0  0  0
 18 19  1  0  0  0
 18 25  1  0  0  0
 19 20  1  0  0  0
 20 21  1  0  0  0
 20 24  1  0  0  0
 21 22  1  0  0  0
 21 23  1  0  0  0
 23 51  1  0  0  0
 23 52  1  0  0  0
 24 53  1  0  0  0
 25 54  1  0  0  0
 26 55  1  0  0  0
 27 28  1  0  0  0
 28 29  2  0  0  0
 28 30  1  0  0  0
 30 31  1  0  0  0
 31 32  1  0  0  0
 31 36  1  0  0  0
 32 33  1  0  0  0
 33 34  2  0  0  0
 33 35  1  0  0  0
 35 56  1  0  0  0
 36 37  2  0  0  0
 36 38  1  0  0  0
 38 57  1  0  0  0
 39 40  1  0  0  0
 40 41  2  0  0  0
 40 42  1  0  0  0
 42 43  1  0  0  0
 43 44  1  0  0  0
 43 48  1  0  0  0
 44 45  1  0  0  0
 45 46  2  0  0  0
 45 47  1  0  0  0
 47 58  1  0  0  0
 48 49  2  0  0  0
 48 50  1  0  0  0
 50 59  1  0  0  0
M  END
>  <AUTHOR>
    GENERATED BY OPEN BABEL 2.4.1

>  <CHROM.1>
72.73286054,-151.62764267,-79.19385371,-71.94036528,-145.46032722,-176.82892999
40.89190485,179.62875672,163.13640602,-71.47917664,22.84213102,-170.57610461
170.37512033,-70.92265859,-74.41365394,-96.55454596,-89.70699456,-158.18090688
64.19483218,-173.68221324,-178.71878661,-47.29187736,-28.61219791,-14.43000979
173.53854610,177.11812606,-61.19221761,-26.89778151,-28.99462905,-7.65429121
175.54418745,14.01307924,71.75284483,127.73221092,63.62047201,1.36136191
95.00640429,114.30645741,-17.52543498,4.63525441,2.37800851,1.46389382,-0.55862111
0.14669242,-2.18573383

>  <COMPND>
    UNNAMED

>  <MASTER>
        0    0    0    0    0    0    0    0  109    0  109    0

>  <Name>
FB1.pdb

>  <RI>
0

>  <Rbt.Current_Directory>
/home/fc/tossine/FB1_39/p3/2_clust01

>  <Rbt.Executable>
rbdock/0.1.0

>  <Rbt.Library>
librxdock.so/0.1.0

>  <Rbt.Parameter_File>
/cluster/rxdock/data/scripts/dock.prm

>  <Rbt.Receptor>
rx_4.prm

>  <SCORE>
23.4679

>  <SCORE.INTER>
-6.27871

>  <SCORE.INTER.CONST>
1

>  <SCORE.INTER.POLAR>
-3.86665

>  <SCORE.INTER.REPUL>
0

>  <SCORE.INTER.ROT>
32

>  <SCORE.INTER.VDW>
-30.5321

>  <SCORE.INTER.norm>
-0.125574

>  <SCORE.INTRA>
28.8287

>  <SCORE.INTRA.DIHEDRAL>
23.6695

>  <SCORE.INTRA.DIHEDRAL.0>
47.3121

>  <SCORE.INTRA.POLAR>
1.47808

>  <SCORE.INTRA.POLAR.0>
-1.47808

>  <SCORE.INTRA.REPUL>
0

>  <SCORE.INTRA.REPUL.0>
0

>  <SCORE.INTRA.VDW>
11.9685

>  <SCORE.INTRA.VDW.0>
-2.78316

>  <SCORE.INTRA.norm>
0.576574

>  <SCORE.RESTR>
0.917917

>  <SCORE.RESTR.CAVITY>
0.917917

>  <SCORE.RESTR.norm>
0.0183583

>  <SCORE.SYSTEM>
0

>  <SCORE.SYSTEM.CONST>
0

>  <SCORE.SYSTEM.DIHEDRAL>
0

>  <SCORE.SYSTEM.norm>
0

>  <SCORE.heavy>
50

>  <SCORE.norm>
0.469358

$$$$
