FB1.pdb
  RxDock  10072011493D
librxdock.so/0.1.0
 59 58  0  0  0  0  0  0  0  0999 V2000
    4.8084   -2.8225   -2.0907 C   0  0  0  0  0  0
    5.6164   -1.8427   -1.2431 C   0  0  0  0  0  0
    4.8772   -1.4657    0.0514 C   0  0  0  0  0  0
    5.5622   -0.3242    0.8436 C   0  0  0  0  0  0
    4.8003    0.1339    2.1359 C   0  0  0  0  0  0
    5.0504   -0.9147    3.2444 C   0  0  0  0  0  0
    5.2048    1.5872    2.6279 C   0  0  0  0  0  0
    4.1636    2.3475    3.5787 C   0  0  0  0  0  0
    2.5867    2.1448    3.5556 C   0  0  0  0  0  0
    2.0787    0.5877    3.7520 C   0  0  0  0  0  0
    2.4595    0.1268    5.1580 C   0  0  0  0  0  0
    0.5263    0.3179    3.5027 C   0  0  0  0  0  0
   -0.3101    0.9177    2.2540 C   0  0  0  0  0  0
    0.3034    1.9557    1.2529 C   0  0  0  0  0  0
   -0.6444    2.5721    0.1255 C   0  0  0  0  0  0
   -2.0272    3.2780    0.4155 C   0  0  0  0  0  0
   -2.6700    4.1768   -0.6737 C   0  0  0  0  0  0
   -3.0586    3.4723   -2.0308 C   0  0  0  0  0  0
   -3.6571    4.3742   -3.1175 C   0  0  0  0  0  0
   -4.9773    3.9238   -3.8049 C   0  0  0  0  0  0
   -5.5694    2.5096   -3.5314 C   0  0  0  0  0  0
   -4.6682    1.3247   -3.8496 C   0  0  0  0  0  0
   -6.0961    2.4173   -2.1565 N   0  0  0  0  0  0
   -5.9804    4.8514   -3.3178 O   0  0  0  0  0  0
   -1.8829    2.8464   -2.5560 O   0  0  0  0  0  0
   -0.6451   -0.2261    1.4501 O   0  0  0  0  0  0
    4.5480    2.0243    4.9426 O   0  0  0  0  0  0
    5.4818    2.8204    5.5254 C   0  0  0  0  0  0
    6.4834    3.2615    4.9949 O   0  0  0  0  0  0
    5.0207    3.1545    6.9173 C   0  0  0  0  0  0
    6.1246    2.9565    7.9683 C   0  0  0  0  0  0
    7.4176    3.7008    7.6114 C   0  0  0  0  0  0
    8.4379    3.5835    8.7198 C   0  0  0  0  0  0
    8.9817    4.5484    9.2461 O   0  0  0  0  0  0
    8.6940    2.3167    9.0784 O   0  0  0  0  0  0
    5.5539    3.4974    9.2865 C   0  0  0  0  0  0
    5.7620    2.9712   10.3692 O   0  0  0  0  0  0
    4.7639    4.5711    9.1479 O   0  0  0  0  0  0
    6.5782    1.6000    3.1878 O   0  0  0  0  0  0
    7.6403    1.8091    2.3238 C   0  0  0  0  0  0
    7.5513    1.8290    1.1031 O   0  0  0  0  0  0
    8.9658    2.0181    3.0678 C   0  0  0  0  0  0
   10.1608    2.5149    2.1962 C   0  0  0  0  0  0
   10.8906    3.7981    2.6335 C   0  0  0  0  0  0
   11.1939    3.8284    4.1037 C   0  0  0  0  0  0
   11.1181    2.8760    4.8677 O   0  0  0  0  0  0
   11.5905    5.0404    4.5210 O   0  0  0  0  0  0
   11.2343    1.4544    1.9220 C   0  0  0  0  0  0
   11.4962    1.0536    0.8051 O   0  0  0  0  0  0
   11.9525    1.0657    2.9963 O   0  0  0  0  0  0
   -6.7644    1.6496   -2.1057 H   0  0  0  0  0  0
   -6.6445    3.2575   -1.9597 H   0  0  0  0  0  0
   -6.3948    5.2148   -4.1287 H   0  0  0  0  0  0
   -2.1304    2.3670   -3.3680 H   0  0  0  0  0  0
    0.1824   -0.6682    1.1965 H   0  0  0  0  0  0
    8.1108    1.6442    8.6772 H   0  0  0  0  0  0
    4.9149    5.0867    8.3171 H   0  0  0  0  0  0
   11.6844    5.5971    3.7193 H   0  0  0  0  0  0
   12.6526    0.4000    2.8146 H   0  0  0  0  0  0
  1  2  1  0  0  0
  2  3  1  0  0  0
  3  4  1  0  0  0
  4  5  1  0  0  0
  5  6  1  0  0  0
  5  7  1  0  0  0
  7  8  1  0  0  0
  7 39  1  0  0  0
  8  9  1  0  0  0
  8 27  1  0  0  0
  9 10  1  0  0  0
 10 11  1  0  0  0
 10 12  1  0  0  0
 12 13  1  0  0  0
 13 14  1  0  0  0
 13 26  1  0  0  0
 14 15  1  0  0  0
 15 16  1  0  0  0
 16 17  1  0  0  0
 17 18  1  0  0  0
 18 19  1  0  0  0
 18 25  1  0  0  0
 19 20  1  0  0  0
 20 21  1  0  0  0
 20 24  1  0  0  0
 21 22  1  0  0  0
 21 23  1  0  0  0
 23 51  1  0  0  0
 23 52  1  0  0  0
 24 53  1  0  0  0
 25 54  1  0  0  0
 26 55  1  0  0  0
 27 28  1  0  0  0
 28 29  2  0  0  0
 28 30  1  0  0  0
 30 31  1  0  0  0
 31 32  1  0  0  0
 31 36  1  0  0  0
 32 33  1  0  0  0
 33 34  2  0  0  0
 33 35  1  0  0  0
 35 56  1  0  0  0
 36 37  2  0  0  0
 36 38  1  0  0  0
 38 57  1  0  0  0
 39 40  1  0  0  0
 40 41  2  0  0  0
 40 42  1  0  0  0
 42 43  1  0  0  0
 43 44  1  0  0  0
 43 48  1  0  0  0
 44 45  1  0  0  0
 45 46  2  0  0  0
 45 47  1  0  0  0
 47 58  1  0  0  0
 48 49  2  0  0  0
 48 50  1  0  0  0
 50 59  1  0  0  0
M  END
>  <AUTHOR>
    GENERATED BY OPEN BABEL 2.4.1

>  <CHROM.1>
-171.75519163,177.26236807,76.97577133,158.88063826,-29.46523688,87.80392975
55.34211771,87.25537875,65.45852357,44.53497848,-6.89202725,-175.15726689
-58.00588113,53.69844684,163.01595275,62.26215025,-178.33533698,-130.11791397
176.79200120,-7.97375164,-57.80597569,126.23095268,159.22355442,-41.16809993
132.34944774,52.97962462,175.08720735,141.89249444,-125.95304109,-8.14811104
-22.61281382,-9.08328033,-169.32098917,125.05728227,45.51804297,117.07945036
12.93556598,-6.46893307,-178.76338245,4.07131833,2.13609997,2.66459238,-2.61731517
-0.16355506,1.27288052

>  <COMPND>
    UNNAMED

>  <MASTER>
        0    0    0    0    0    0    0    0  109    0  109    0

>  <Name>
FB1.pdb

>  <RI>
0

>  <Rbt.Current_Directory>
/home/fc/tossine/FB1_39/p3/2_clust01

>  <Rbt.Executable>
rbdock/0.1.0

>  <Rbt.Library>
librxdock.so/0.1.0

>  <Rbt.Parameter_File>
/cluster/rxdock/data/scripts/dock.prm

>  <Rbt.Receptor>
rx_1.prm

>  <SCORE>
10.7515

>  <SCORE.INTER>
-10.0341

>  <SCORE.INTER.CONST>
1

>  <SCORE.INTER.POLAR>
-3.7018

>  <SCORE.INTER.REPUL>
0.0118104

>  <SCORE.INTER.ROT>
32

>  <SCORE.INTER.VDW>
-34.907

>  <SCORE.INTER.norm>
-0.200682

>  <SCORE.INTRA>
19.2397

>  <SCORE.INTRA.DIHEDRAL>
22.6905

>  <SCORE.INTRA.DIHEDRAL.0>
47.3121

>  <SCORE.INTRA.POLAR>
1.36264

>  <SCORE.INTRA.POLAR.0>
-1.47808

>  <SCORE.INTRA.REPUL>
0

>  <SCORE.INTRA.REPUL.0>
0

>  <SCORE.INTRA.VDW>
3.26148

>  <SCORE.INTRA.VDW.0>
-2.78316

>  <SCORE.INTRA.norm>
0.384794

>  <SCORE.RESTR>
1.54587

>  <SCORE.RESTR.CAVITY>
1.54587

>  <SCORE.RESTR.norm>
0.0309174

>  <SCORE.SYSTEM>
0

>  <SCORE.SYSTEM.CONST>
0

>  <SCORE.SYSTEM.DIHEDRAL>
0

>  <SCORE.SYSTEM.norm>
0

>  <SCORE.heavy>
50

>  <SCORE.norm>
0.21503

$$$$
