FB1.pdb
  RxDock  10072013303D
librxdock.so/0.1.0
 59 58  0  0  0  0  0  0  0  0999 V2000
  -13.0349    3.5660    5.4418 C   0  0  0  0  0  0
  -12.9147    3.7262    3.9281 C   0  0  0  0  0  0
  -12.9317    5.2055    3.5090 C   0  0  0  0  0  0
  -13.3557    5.4250    2.0353 C   0  0  0  0  0  0
  -13.1198    6.8760    1.4882 C   0  0  0  0  0  0
  -14.1442    7.8202    2.1589 C   0  0  0  0  0  0
  -11.6380    7.4011    1.7039 C   0  0  0  0  0  0
  -10.4548    6.4981    1.1117 C   0  0  0  0  0  0
  -10.2460    6.1578   -0.4274 C   0  0  0  0  0  0
   -9.3268    4.8217   -0.7299 C   0  0  0  0  0  0
   -7.9170    5.0721   -0.1971 C   0  0  0  0  0  0
   -9.8801    3.4419   -0.1513 C   0  0  0  0  0  0
   -9.1248    2.0204   -0.3165 C   0  0  0  0  0  0
   -7.7319    1.7279    0.3394 C   0  0  0  0  0  0
   -6.8942    0.4754   -0.1884 C   0  0  0  0  0  0
   -5.9859    0.4946   -1.4805 C   0  0  0  0  0  0
   -5.8911    1.7900   -2.3292 C   0  0  0  0  0  0
   -7.2525    2.5089   -2.6740 C   0  0  0  0  0  0
   -7.1545    3.7687   -3.5432 C   0  0  0  0  0  0
   -6.5324    5.0494   -2.9178 C   0  0  0  0  0  0
   -4.9958    5.2948   -2.9808 C   0  0  0  0  0  0
   -4.3913    6.1025   -1.8408 C   0  0  0  0  0  0
   -4.2684    4.0255   -3.1714 N   0  0  0  0  0  0
   -7.1186    6.1456   -3.6653 O   0  0  0  0  0  0
   -8.0959    1.5621   -3.3389 O   0  0  0  0  0  0
  -10.0213    1.0562    0.2608 O   0  0  0  0  0  0
   -9.2141    7.1423    1.5093 O   0  0  0  0  0  0
   -9.0372    8.4323    1.1221 C   0  0  0  0  0  0
   -9.3940    9.4220    1.7325 O   0  0  0  0  0  0
   -8.2311    8.4420   -0.1474 C   0  0  0  0  0  0
   -8.0640    9.8546   -0.7298 C   0  0  0  0  0  0
   -7.6378   10.8807    0.3279 C   0  0  0  0  0  0
   -8.0198   12.2825   -0.0875 C   0  0  0  0  0  0
   -8.5599   12.5500   -1.1555 O   0  0  0  0  0  0
   -7.7125   13.2135    0.8277 O   0  0  0  0  0  0
   -6.9840    9.7386   -1.8143 C   0  0  0  0  0  0
   -6.6173    8.6699   -2.2788 O   0  0  0  0  0  0
   -6.4374   10.9071   -2.1776 O   0  0  0  0  0  0
  -11.5086    8.8213    1.2964 O   0  0  0  0  0  0
  -11.6518    9.1380   -0.0442 C   0  0  0  0  0  0
  -12.2698    8.4629   -0.8570 O   0  0  0  0  0  0
  -10.9430   10.4478   -0.4136 C   0  0  0  0  0  0
  -11.0473   10.8755   -1.9105 C   0  0  0  0  0  0
  -11.2774    9.7755   -2.9628 C   0  0  0  0  0  0
  -10.1194    8.8273   -3.0830 C   0  0  0  0  0  0
  -10.0910    7.6787   -2.6628 O   0  0  0  0  0  0
   -9.0796    9.3675   -3.7368 O   0  0  0  0  0  0
  -12.0676   11.9869   -2.1865 C   0  0  0  0  0  0
  -11.7762   13.0275   -2.7423 O   0  0  0  0  0  0
  -13.3453   11.6927   -1.8671 O   0  0  0  0  0  0
   -3.6194    3.8929   -2.3969 H   0  0  0  0  0  0
   -3.6757    4.1100   -4.0002 H   0  0  0  0  0  0
   -6.8272    6.9520   -3.1898 H   0  0  0  0  0  0
   -7.7045    1.3651   -4.2098 H   0  0  0  0  0  0
   -9.6966    0.1692    0.0322 H   0  0  0  0  0  0
   -7.4931   12.8692    1.7147 H   0  0  0  0  0  0
   -5.4482   10.9099   -2.1928 H   0  0  0  0  0  0
   -9.3233   10.2964   -3.9342 H   0  0  0  0  0  0
  -13.4913   10.7884   -1.5104 H   0  0  0  0  0  0
  1  2  1  0  0  0
  2  3  1  0  0  0
  3  4  1  0  0  0
  4  5  1  0  0  0
  5  6  1  0  0  0
  5  7  1  0  0  0
  7  8  1  0  0  0
  7 39  1  0  0  0
  8  9  1  0  0  0
  8 27  1  0  0  0
  9 10  1  0  0  0
 10 11  1  0  0  0
 10 12  1  0  0  0
 12 13  1  0  0  0
 13 14  1  0  0  0
 13 26  1  0  0  0
 14 15  1  0  0  0
 15 16  1  0  0  0
 16 17  1  0  0  0
 17 18  1  0  0  0
 18 19  1  0  0  0
 18 25  1  0  0  0
 19 20  1  0  0  0
 20 21  1  0  0  0
 20 24  1  0  0  0
 21 22  1  0  0  0
 21 23  1  0  0  0
 23 51  1  0  0  0
 23 52  1  0  0  0
 24 53  1  0  0  0
 25 54  1  0  0  0
 26 55  1  0  0  0
 27 28  1  0  0  0
 28 29  2  0  0  0
 28 30  1  0  0  0
 30 31  1  0  0  0
 31 32  1  0  0  0
 31 36  1  0  0  0
 32 33  1  0  0  0
 33 34  2  0  0  0
 33 35  1  0  0  0
 35 56  1  0  0  0
 36 37  2  0  0  0
 36 38  1  0  0  0
 38 57  1  0  0  0
 39 40  1  0  0  0
 40 41  2  0  0  0
 40 42  1  0  0  0
 42 43  1  0  0  0
 43 44  1  0  0  0
 43 48  1  0  0  0
 44 45  1  0  0  0
 45 46  2  0  0  0
 45 47  1  0  0  0
 47 58  1  0  0  0
 48 49  2  0  0  0
 48 50  1  0  0  0
 50 59  1  0  0  0
M  END
>  <AUTHOR>
    GENERATED BY OPEN BABEL 2.4.1

>  <CHROM.1>
-157.80875422,-168.64041280,-71.21394031,55.56680243,62.16092196,-66.71211584
-159.08434785,-57.41335816,-63.28524674,-179.10627759,64.96946432,-163.76416628
169.04058105,82.06519022,-0.89076465,-46.84811653,-178.49448639,-70.16501904
-67.92859450,88.07026663,-150.43108981,172.17663071,-121.42954560,88.32008799
175.66583695,47.48444180,-156.66081068,15.22486066,-2.23543385,-14.37530129
130.93661493,24.07425415,179.65157223,-25.39992097,-65.93638281,124.42099524
105.88764394,3.35151456,-1.38869828,-9.29124436,7.01223131,-0.66519735,1.17099758
-0.64762464,2.92921649

>  <COMPND>
    UNNAMED

>  <MASTER>
        0    0    0    0    0    0    0    0  109    0  109    0

>  <Name>
FB1.pdb

>  <RI>
0

>  <Rbt.Current_Directory>
/home/fc/tossine/FB1_39/p3/2_clust01

>  <Rbt.Executable>
rbdock/0.1.0

>  <Rbt.Library>
librxdock.so/0.1.0

>  <Rbt.Parameter_File>
/cluster/rxdock/data/scripts/dock.prm

>  <Rbt.Receptor>
rx_3.prm

>  <SCORE>
53.2671

>  <SCORE.INTER>
27.3501

>  <SCORE.INTER.CONST>
1

>  <SCORE.INTER.POLAR>
-1.8236

>  <SCORE.INTER.REPUL>
0.140269

>  <SCORE.INTER.ROT>
32

>  <SCORE.INTER.VDW>
-4.55105

>  <SCORE.INTER.norm>
0.547001

>  <SCORE.INTRA>
23.5566

>  <SCORE.INTRA.DIHEDRAL>
31.9634

>  <SCORE.INTRA.DIHEDRAL.0>
47.3121

>  <SCORE.INTRA.POLAR>
0.485595

>  <SCORE.INTRA.POLAR.0>
-1.47808

>  <SCORE.INTRA.REPUL>
0

>  <SCORE.INTRA.REPUL.0>
0

>  <SCORE.INTRA.VDW>
5.92387

>  <SCORE.INTRA.VDW.0>
-2.78316

>  <SCORE.INTRA.norm>
0.471132

>  <SCORE.RESTR>
2.36045

>  <SCORE.RESTR.CAVITY>
2.36045

>  <SCORE.RESTR.norm>
0.047209

>  <SCORE.SYSTEM>
0

>  <SCORE.SYSTEM.CONST>
0

>  <SCORE.SYSTEM.DIHEDRAL>
0

>  <SCORE.SYSTEM.norm>
0

>  <SCORE.heavy>
50

>  <SCORE.norm>
1.06534

$$$$
