FB1.pdb
  RxDock  10072012453D
librxdock.so/0.1.0
 59 58  0  0  0  0  0  0  0  0999 V2000
    7.5548   -3.2197   -1.9775 C   0  0  0  0  0  0
    6.9924   -1.9867   -2.6810 C   0  0  0  0  0  0
    6.8722   -0.7899   -1.7231 C   0  0  0  0  0  0
    5.7626   -0.9620   -0.6560 C   0  0  0  0  0  0
    5.9794   -0.1403    0.6624 C   0  0  0  0  0  0
    7.3488   -0.5358    1.2614 C   0  0  0  0  0  0
    5.8839    1.4297    0.4529 C   0  0  0  0  0  0
    4.4901    2.1277    0.8223 C   0  0  0  0  0  0
    3.1975    2.1367   -0.1036 C   0  0  0  0  0  0
    2.7339    0.6591   -0.6719 C   0  0  0  0  0  0
    2.1071   -0.1280    0.4777 C   0  0  0  0  0  0
    1.7401    0.6659   -1.9198 C   0  0  0  0  0  0
    0.1505    0.9491   -1.8127 C   0  0  0  0  0  0
   -0.4485    2.0174   -0.8349 C   0  0  0  0  0  0
   -1.6694    2.9109   -1.3452 C   0  0  0  0  0  0
   -2.6376    3.7190   -0.3943 C   0  0  0  0  0  0
   -3.4908    4.8766   -0.9769 C   0  0  0  0  0  0
   -4.0740    4.6626   -2.4271 C   0  0  0  0  0  0
   -5.5238    4.1689   -2.5103 C   0  0  0  0  0  0
   -6.6267    4.9956   -1.7904 C   0  0  0  0  0  0
   -6.7729    4.9399   -0.2409 C   0  0  0  0  0  0
   -8.0007    5.6197    0.3487 C   0  0  0  0  0  0
   -6.6516    3.5536    0.2488 N   0  0  0  0  0  0
   -6.3028    6.3779   -2.0875 O   0  0  0  0  0  0
   -3.9759    5.9057   -3.1306 O   0  0  0  0  0  0
   -0.2368    1.3843   -3.1269 O   0  0  0  0  0  0
    4.0421    1.5106    2.0597 O   0  0  0  0  0  0
    3.1122    2.1857    2.7842 C   0  0  0  0  0  0
    2.6425    3.2750    2.5153 O   0  0  0  0  0  0
    2.6782    1.3149    3.9309 C   0  0  0  0  0  0
    3.7071    1.2857    5.0723 C   0  0  0  0  0  0
    3.3762    2.2843    6.1888 C   0  0  0  0  0  0
    4.5919    2.5755    7.0377 C   0  0  0  0  0  0
    4.6123    2.4535    8.2577 O   0  0  0  0  0  0
    5.6549    2.9810    6.3274 O   0  0  0  0  0  0
    3.6840   -0.1463    5.6245 C   0  0  0  0  0  0
    2.8899   -0.5207    6.4741 O   0  0  0  0  0  0
    4.6420   -0.9441    5.1331 O   0  0  0  0  0  0
    7.0349    2.1245    1.0792 O   0  0  0  0  0  0
    8.2254    2.1941    0.3749 C   0  0  0  0  0  0
    8.4414    1.6225   -0.6857 O   0  0  0  0  0  0
    9.2661    3.0791    1.0735 C   0  0  0  0  0  0
   10.4605    2.3253    1.7367 C   0  0  0  0  0  0
   11.6975    3.1465    2.1439 C   0  0  0  0  0  0
   11.3915    4.1979    3.1712 C   0  0  0  0  0  0
   10.3012    4.3913    3.6914 O   0  0  0  0  0  0
   12.4700    4.9267    3.4968 O   0  0  0  0  0  0
   10.0767    1.4570    2.9413 C   0  0  0  0  0  0
   10.4893    0.3247    3.0971 O   0  0  0  0  0  0
    9.3295    2.0703    3.8829 O   0  0  0  0  0  0
   -7.4957    3.0377    0.0041 H   0  0  0  0  0  0
   -6.6389    3.5682    1.2711 H   0  0  0  0  0  0
   -7.1175    6.8756   -1.8641 H   0  0  0  0  0  0
   -3.0320    6.0925   -3.2877 H   0  0  0  0  0  0
   -1.2054    1.3337   -3.1872 H   0  0  0  0  0  0
    6.4504    3.1933    6.8525 H   0  0  0  0  0  0
    4.6583   -1.8533    5.5227 H   0  0  0  0  0  0
   12.1826    5.5620    4.1860 H   0  0  0  0  0  0
    9.2517    3.0455    3.7876 H   0  0  0  0  0  0
  1  2  1  0  0  0
  2  3  1  0  0  0
  3  4  1  0  0  0
  4  5  1  0  0  0
  5  6  1  0  0  0
  5  7  1  0  0  0
  7  8  1  0  0  0
  7 39  1  0  0  0
  8  9  1  0  0  0
  8 27  1  0  0  0
  9 10  1  0  0  0
 10 11  1  0  0  0
 10 12  1  0  0  0
 12 13  1  0  0  0
 13 14  1  0  0  0
 13 26  1  0  0  0
 14 15  1  0  0  0
 15 16  1  0  0  0
 16 17  1  0  0  0
 17 18  1  0  0  0
 18 19  1  0  0  0
 18 25  1  0  0  0
 19 20  1  0  0  0
 20 21  1  0  0  0
 20 24  1  0  0  0
 21 22  1  0  0  0
 21 23  1  0  0  0
 23 51  1  0  0  0
 23 52  1  0  0  0
 24 53  1  0  0  0
 25 54  1  0  0  0
 26 55  1  0  0  0
 27 28  1  0  0  0
 28 29  2  0  0  0
 28 30  1  0  0  0
 30 31  1  0  0  0
 31 32  1  0  0  0
 31 36  1  0  0  0
 32 33  1  0  0  0
 33 34  2  0  0  0
 33 35  1  0  0  0
 35 56  1  0  0  0
 36 37  2  0  0  0
 36 38  1  0  0  0
 38 57  1  0  0  0
 39 40  1  0  0  0
 40 41  2  0  0  0
 40 42  1  0  0  0
 42 43  1  0  0  0
 43 44  1  0  0  0
 43 48  1  0  0  0
 44 45  1  0  0  0
 45 46  2  0  0  0
 45 47  1  0  0  0
 47 58  1  0  0  0
 48 49  2  0  0  0
 48 50  1  0  0  0
 50 59  1  0  0  0
M  END
>  <AUTHOR>
    GENERATED BY OPEN BABEL 2.4.1

>  <CHROM.1>
-70.03428960,154.80279787,-56.78496491,98.51513831,-79.79015355,82.52649595
50.69256862,160.85964416,73.61613518,-78.30226338,38.40508342,140.52286399
164.68924453,161.90724020,161.13806540,37.60915786,97.29995396,55.64076294
68.44589726,-75.12509236,-171.41784564,164.21088943,-72.88161386,-2.05426290
77.25900255,96.25533987,-160.86631604,-85.52101384,-125.95410454,178.84673110
176.95060758,-6.70766471,107.63768352,165.25692583,61.55745363,134.86948215
2.28593113,-178.32332834,-11.10750421,3.37077900,2.13085074,1.24665523,-0.23412945
0.24014367,-1.78456835

>  <COMPND>
    UNNAMED

>  <MASTER>
        0    0    0    0    0    0    0    0  109    0  109    0

>  <Name>
FB1.pdb

>  <RI>
0

>  <Rbt.Current_Directory>
/home/fc/tossine/FB1_39/p3/2_clust01

>  <Rbt.Executable>
rbdock/0.1.0

>  <Rbt.Library>
librxdock.so/0.1.0

>  <Rbt.Parameter_File>
/cluster/rxdock/data/scripts/dock.prm

>  <Rbt.Receptor>
rx_2.prm

>  <SCORE>
12.3609

>  <SCORE.INTER>
4.97792

>  <SCORE.INTER.CONST>
1

>  <SCORE.INTER.POLAR>
-1.60775

>  <SCORE.INTER.REPUL>
0.364702

>  <SCORE.INTER.ROT>
32

>  <SCORE.INTER.VDW>
-28.7792

>  <SCORE.INTER.norm>
0.0995584

>  <SCORE.INTRA>
6.17503

>  <SCORE.INTRA.DIHEDRAL>
4.83277

>  <SCORE.INTRA.DIHEDRAL.0>
47.3121

>  <SCORE.INTRA.POLAR>
0.834

>  <SCORE.INTRA.POLAR.0>
-1.47808

>  <SCORE.INTRA.REPUL>
0.00129127

>  <SCORE.INTRA.REPUL.0>
0

>  <SCORE.INTRA.VDW>
0.916587

>  <SCORE.INTRA.VDW.0>
-2.78316

>  <SCORE.INTRA.norm>
0.123501

>  <SCORE.RESTR>
1.20797

>  <SCORE.RESTR.CAVITY>
1.20797

>  <SCORE.RESTR.norm>
0.0241594

>  <SCORE.SYSTEM>
0

>  <SCORE.SYSTEM.CONST>
0

>  <SCORE.SYSTEM.DIHEDRAL>
0

>  <SCORE.SYSTEM.norm>
0

>  <SCORE.heavy>
50

>  <SCORE.norm>
0.247218

$$$$
