FB1.pdb
  RxDock  10072011423D
librxdock.so/0.1.0
 59 58  0  0  0  0  0  0  0  0999 V2000
  -16.3944   11.5028   -1.6167 C   0  0  0  0  0  0
  -14.9802   11.9896   -1.9243 C   0  0  0  0  0  0
  -14.3244   12.6454   -0.6979 C   0  0  0  0  0  0
  -13.0852   13.5069   -1.0470 C   0  0  0  0  0  0
  -12.0185   12.7958   -1.9508 C   0  0  0  0  0  0
  -10.8573   13.7855   -2.2016 C   0  0  0  0  0  0
  -11.4807   11.4325   -1.3425 C   0  0  0  0  0  0
  -10.3798   10.6413   -2.1959 C   0  0  0  0  0  0
   -9.0813    9.9476   -1.5952 C   0  0  0  0  0  0
   -7.9204    9.5597   -2.7012 C   0  0  0  0  0  0
   -7.0745   10.8027   -2.9727 C   0  0  0  0  0  0
   -6.9684    8.3372   -2.3219 C   0  0  0  0  0  0
   -6.0313    8.2917   -1.0034 C   0  0  0  0  0  0
   -6.2976    7.3027    0.1828 C   0  0  0  0  0  0
   -6.2031    5.7347   -0.1028 C   0  0  0  0  0  0
   -4.8512    4.9562   -0.3498 C   0  0  0  0  0  0
   -4.8930    3.5118   -0.9150 C   0  0  0  0  0  0
   -3.5819    2.9931   -1.6231 C   0  0  0  0  0  0
   -3.7191    1.7084   -2.4496 C   0  0  0  0  0  0
   -4.8822    1.6136   -3.4775 C   0  0  0  0  0  0
   -5.1850    2.7986   -4.4415 C   0  0  0  0  0  0
   -6.1965    3.8268   -3.9544 C   0  0  0  0  0  0
   -3.9370    3.4527   -4.8784 N   0  0  0  0  0  0
   -4.5182    0.5086   -4.3437 O   0  0  0  0  0  0
   -3.1002    4.0351   -2.4787 O   0  0  0  0  0  0
   -4.7233    7.9488   -1.4914 O   0  0  0  0  0  0
  -11.0851    9.5632   -2.8688 O   0  0  0  0  0  0
  -12.0007    8.8749   -2.1388 C   0  0  0  0  0  0
  -13.0580    8.4312   -2.5447 O   0  0  0  0  0  0
  -11.4446    8.6600   -0.7582 C   0  0  0  0  0  0
  -12.2509    7.6302    0.0493 C   0  0  0  0  0  0
  -11.6284    6.2289    0.0043 C   0  0  0  0  0  0
  -11.5832    5.6976   -1.4096 C   0  0  0  0  0  0
  -12.4589    5.9084   -2.2417 O   0  0  0  0  0  0
  -10.4874    4.9703   -1.6724 O   0  0  0  0  0  0
  -12.2718    8.1495    1.4935 C   0  0  0  0  0  0
  -12.0414    7.4399    2.4608 O   0  0  0  0  0  0
  -12.6135    9.4399    1.6123 O   0  0  0  0  0  0
  -11.0682   11.6031    0.0720 O   0  0  0  0  0  0
   -9.9461   12.3681    0.3435 C   0  0  0  0  0  0
   -8.9863   12.4873   -0.4068 O   0  0  0  0  0  0
  -10.0310   13.0653    1.7077 C   0  0  0  0  0  0
   -9.2283   14.3969    1.8390 C   0  0  0  0  0  0
   -9.4551   15.2573    3.0955 C   0  0  0  0  0  0
   -8.8140   16.6118    3.0023 C   0  0  0  0  0  0
   -8.9025   17.3794    2.0539 O   0  0  0  0  0  0
   -8.1205   16.9284    4.1065 O   0  0  0  0  0  0
   -7.7124   14.2479    1.6597 C   0  0  0  0  0  0
   -7.1540   13.1690    1.6296 O   0  0  0  0  0  0
   -7.0408   15.3953    1.4281 O   0  0  0  0  0  0
   -3.2365    2.7389   -5.0741 H   0  0  0  0  0  0
   -3.5564    3.9872   -4.0942 H   0  0  0  0  0  0
   -3.6745    0.7876   -4.7581 H   0  0  0  0  0  0
   -2.1604    3.8609   -2.6706 H   0  0  0  0  0  0
   -4.0935    8.0465   -0.7576 H   0  0  0  0  0  0
   -9.6475    5.4683   -1.6751 H   0  0  0  0  0  0
  -12.2618   10.0249    0.8962 H   0  0  0  0  0  0
   -8.2063   16.1684    4.7201 H   0  0  0  0  0  0
   -6.0637   15.3054    1.3702 H   0  0  0  0  0  0
  1  2  1  0  0  0
  2  3  1  0  0  0
  3  4  1  0  0  0
  4  5  1  0  0  0
  5  6  1  0  0  0
  5  7  1  0  0  0
  7  8  1  0  0  0
  7 39  1  0  0  0
  8  9  1  0  0  0
  8 27  1  0  0  0
  9 10  1  0  0  0
 10 11  1  0  0  0
 10 12  1  0  0  0
 12 13  1  0  0  0
 13 14  1  0  0  0
 13 26  1  0  0  0
 14 15  1  0  0  0
 15 16  1  0  0  0
 16 17  1  0  0  0
 17 18  1  0  0  0
 18 19  1  0  0  0
 18 25  1  0  0  0
 19 20  1  0  0  0
 20 21  1  0  0  0
 20 24  1  0  0  0
 21 22  1  0  0  0
 21 23  1  0  0  0
 23 51  1  0  0  0
 23 52  1  0  0  0
 24 53  1  0  0  0
 25 54  1  0  0  0
 26 55  1  0  0  0
 27 28  1  0  0  0
 28 29  2  0  0  0
 28 30  1  0  0  0
 30 31  1  0  0  0
 31 32  1  0  0  0
 31 36  1  0  0  0
 32 33  1  0  0  0
 33 34  2  0  0  0
 33 35  1  0  0  0
 35 56  1  0  0  0
 36 37  2  0  0  0
 36 38  1  0  0  0
 38 57  1  0  0  0
 39 40  1  0  0  0
 40 41  2  0  0  0
 40 42  1  0  0  0
 42 43  1  0  0  0
 43 44  1  0  0  0
 43 48  1  0  0  0
 44 45  1  0  0  0
 45 46  2  0  0  0
 45 47  1  0  0  0
 47 58  1  0  0  0
 48 49  2  0  0  0
 48 50  1  0  0  0
 50 59  1  0  0  0
M  END
>  <AUTHOR>
    GENERATED BY OPEN BABEL 2.4.1

>  <CHROM.1>
-163.30162058,-50.31357196,-179.98452095,-179.64841408,137.29097457,-68.79873675
-164.25709251,-42.94163512,83.00775991,-59.30652199,111.97398962,62.93614040
171.14969320,72.43019259,-166.86780156,158.29486287,-166.68719480,49.29052680
160.49840776,45.93799910,-91.34644573,-61.59639434,41.16375926,143.60357003
-167.14047371,97.16187484,-61.56014776,-133.66115324,-36.26968257,-67.23937942
-37.57706217,-30.06944158,-152.58282426,170.22212512,-170.20003951,-11.11907397
48.10881137,0.14237074,176.29364910,-8.99495010,9.17596179,-0.83324288,2.03752876
-0.11571443,0.38804380

>  <COMPND>
    UNNAMED

>  <MASTER>
        0    0    0    0    0    0    0    0  109    0  109    0

>  <Name>
FB1.pdb

>  <RI>
0

>  <Rbt.Current_Directory>
/home/fc/tossine/FB1_39/p3/2_clust01

>  <Rbt.Executable>
rbdock/0.1.0

>  <Rbt.Library>
librxdock.so/0.1.0

>  <Rbt.Parameter_File>
/cluster/rxdock/data/scripts/dock.prm

>  <Rbt.Receptor>
rx_1.prm

>  <SCORE>
36.562

>  <SCORE.INTER>
7.49948

>  <SCORE.INTER.CONST>
1

>  <SCORE.INTER.POLAR>
-3.56506

>  <SCORE.INTER.REPUL>
0.60754

>  <SCORE.INTER.ROT>
32

>  <SCORE.INTER.VDW>
-20.817

>  <SCORE.INTER.norm>
0.14999

>  <SCORE.INTRA>
27.1235

>  <SCORE.INTRA.DIHEDRAL>
38.0514

>  <SCORE.INTRA.DIHEDRAL.0>
47.3121

>  <SCORE.INTRA.POLAR>
-0.492864

>  <SCORE.INTRA.POLAR.0>
-1.47808

>  <SCORE.INTRA.REPUL>
0.0118273

>  <SCORE.INTRA.REPUL.0>
0

>  <SCORE.INTRA.VDW>
9.7144

>  <SCORE.INTRA.VDW.0>
-2.78316

>  <SCORE.INTRA.norm>
0.54247

>  <SCORE.RESTR>
1.93898

>  <SCORE.RESTR.CAVITY>
1.93898

>  <SCORE.RESTR.norm>
0.0387795

>  <SCORE.SYSTEM>
0

>  <SCORE.SYSTEM.CONST>
0

>  <SCORE.SYSTEM.DIHEDRAL>
0

>  <SCORE.SYSTEM.norm>
0

>  <SCORE.heavy>
50

>  <SCORE.norm>
0.731239

$$$$
