FB1.pdb
  RxDock  10072011483D
librxdock.so/0.1.0
 59 58  0  0  0  0  0  0  0  0999 V2000
  -14.3145    6.9894   -1.8330 C   0  0  0  0  0  0
  -15.0293    8.0219   -0.9645 C   0  0  0  0  0  0
  -14.2954    9.3731   -0.9658 C   0  0  0  0  0  0
  -12.9071    9.3225   -0.2803 C   0  0  0  0  0  0
  -12.9444    9.2867    1.2875 C   0  0  0  0  0  0
  -13.5874    7.9512    1.7275 C   0  0  0  0  0  0
  -11.5198    9.4792    1.9593 C   0  0  0  0  0  0
  -10.2854    8.7243    1.2720 C   0  0  0  0  0  0
  -10.4075    7.6064    0.1479 C   0  0  0  0  0  0
   -8.9742    7.0972   -0.4908 C   0  0  0  0  0  0
   -8.7345    5.6529   -0.0541 C   0  0  0  0  0  0
   -8.8321    7.2073   -2.0758 C   0  0  0  0  0  0
   -9.5874    6.2336   -3.1246 C   0  0  0  0  0  0
   -9.1034    4.7708   -3.4112 C   0  0  0  0  0  0
   -7.5376    4.5113   -3.5844 C   0  0  0  0  0  0
   -6.5502    4.2047   -2.3904 C   0  0  0  0  0  0
   -6.1037    2.7429   -2.1236 C   0  0  0  0  0  0
   -5.9178    2.3265   -0.6133 C   0  0  0  0  0  0
   -5.0796    3.2736    0.2544 C   0  0  0  0  0  0
   -3.5362    3.2757    0.0645 C   0  0  0  0  0  0
   -2.8497    4.3548   -0.8242 C   0  0  0  0  0  0
   -3.2297    4.3604   -2.2983 C   0  0  0  0  0  0
   -3.0054    5.6980   -0.2344 N   0  0  0  0  0  0
   -3.0023    3.4907    1.3958 O   0  0  0  0  0  0
   -7.2176    2.2024   -0.0261 O   0  0  0  0  0  0
  -10.9201    6.0927   -2.6044 O   0  0  0  0  0  0
   -9.4646    9.7581    0.6637 O   0  0  0  0  0  0
   -8.1869    9.8737    1.1102 C   0  0  0  0  0  0
   -7.6898    9.2600    2.0354 O   0  0  0  0  0  0
   -7.4491   10.8189    0.2026 C   0  0  0  0  0  0
   -6.3562   10.1164   -0.6186 C   0  0  0  0  0  0
   -6.5619    8.5981   -0.6954 C   0  0  0  0  0  0
   -5.2387    7.8716   -0.7649 C   0  0  0  0  0  0
   -4.6849    7.5701   -1.8166 O   0  0  0  0  0  0
   -4.7217    7.5866    0.4394 O   0  0  0  0  0  0
   -6.4266   10.7277   -2.0248 C   0  0  0  0  0  0
   -5.9502   11.8178   -2.3027 O   0  0  0  0  0  0
   -7.0995    9.9876   -2.9166 O   0  0  0  0  0  0
  -11.2294   10.9142    2.1969 O   0  0  0  0  0  0
  -11.1221   11.7550    1.1016 C   0  0  0  0  0  0
  -10.9962   11.3779   -0.0561 O   0  0  0  0  0  0
  -11.1791   13.2369    1.4954 C   0  0  0  0  0  0
  -10.1793   14.1747    0.7502 C   0  0  0  0  0  0
   -8.6846   13.8065    0.7776 C   0  0  0  0  0  0
   -7.7851   15.0082    0.8145 C   0  0  0  0  0  0
   -8.0145   16.0877    0.2867 O   0  0  0  0  0  0
   -6.6670   14.7906    1.5237 O   0  0  0  0  0  0
  -10.5470   14.4673   -0.7098 C   0  0  0  0  0  0
  -10.8294   15.5797   -1.1094 O   0  0  0  0  0  0
  -10.4335   13.4225   -1.5564 O   0  0  0  0  0  0
   -2.4216    6.3576   -0.7470 H   0  0  0  0  0  0
   -2.6198    5.6857    0.7125 H   0  0  0  0  0  0
   -2.0301    3.4283    1.2848 H   0  0  0  0  0  0
   -7.1298    1.6979    0.8036 H   0  0  0  0  0  0
  -11.3466    6.9656   -2.6297 H   0  0  0  0  0  0
   -3.9039    7.0532    0.4260 H   0  0  0  0  0  0
   -7.1069   10.3574   -3.8341 H   0  0  0  0  0  0
   -6.1817   15.6421    1.5520 H   0  0  0  0  0  0
  -10.2315   12.5589   -1.1326 H   0  0  0  0  0  0
  1  2  1  0  0  0
  2  3  1  0  0  0
  3  4  1  0  0  0
  4  5  1  0  0  0
  5  6  1  0  0  0
  5  7  1  0  0  0
  7  8  1  0  0  0
  7 39  1  0  0  0
  8  9  1  0  0  0
  8 27  1  0  0  0
  9 10  1  0  0  0
 10 11  1  0  0  0
 10 12  1  0  0  0
 12 13  1  0  0  0
 13 14  1  0  0  0
 13 26  1  0  0  0
 14 15  1  0  0  0
 15 16  1  0  0  0
 16 17  1  0  0  0
 17 18  1  0  0  0
 18 19  1  0  0  0
 18 25  1  0  0  0
 19 20  1  0  0  0
 20 21  1  0  0  0
 20 24  1  0  0  0
 21 22  1  0  0  0
 21 23  1  0  0  0
 23 51  1  0  0  0
 23 52  1  0  0  0
 24 53  1  0  0  0
 25 54  1  0  0  0
 26 55  1  0  0  0
 27 28  1  0  0  0
 28 29  2  0  0  0
 28 30  1  0  0  0
 30 31  1  0  0  0
 31 32  1  0  0  0
 31 36  1  0  0  0
 32 33  1  0  0  0
 33 34  2  0  0  0
 33 35  1  0  0  0
 35 56  1  0  0  0
 36 37  2  0  0  0
 36 38  1  0  0  0
 38 57  1  0  0  0
 39 40  1  0  0  0
 40 41  2  0  0  0
 40 42  1  0  0  0
 42 43  1  0  0  0
 43 44  1  0  0  0
 43 48  1  0  0  0
 44 45  1  0  0  0
 45 46  2  0  0  0
 45 47  1  0  0  0
 47 58  1  0  0  0
 48 49  2  0  0  0
 48 50  1  0  0  0
 50 59  1  0  0  0
M  END
>  <AUTHOR>
    GENERATED BY OPEN BABEL 2.4.1

>  <CHROM.1>
-66.66015478,-76.05661510,65.94345293,-40.97320293,-11.57998195,-63.69788970
174.36068368,119.15398481,111.58224587,-73.10238217,-77.10809906,-42.95616642
64.31382873,87.56902445,101.17010440,-143.82256858,-49.06812790,-74.54660105
163.28589653,97.96292542,-62.54048091,176.11880642,170.70913931,-5.58563029
-112.32738889,19.23622349,-147.76797010,78.61688116,-91.92741146,175.20099506
-177.04508561,-14.55707351,138.82871111,-54.09272275,-145.49126012,115.80972766
-32.78393323,-175.60000747,6.99282131,-8.42129238,8.65366850,-0.42449247
2.11881291,-0.00298352,0.14593346

>  <COMPND>
    UNNAMED

>  <MASTER>
        0    0    0    0    0    0    0    0  109    0  109    0

>  <Name>
FB1.pdb

>  <RI>
0

>  <Rbt.Current_Directory>
/home/fc/tossine/FB1_39/p3/2_clust01

>  <Rbt.Executable>
rbdock/0.1.0

>  <Rbt.Library>
librxdock.so/0.1.0

>  <Rbt.Parameter_File>
/cluster/rxdock/data/scripts/dock.prm

>  <Rbt.Receptor>
rx_1.prm

>  <SCORE>
15.5654

>  <SCORE.INTER>
3.90299

>  <SCORE.INTER.CONST>
1

>  <SCORE.INTER.POLAR>
-3.83607

>  <SCORE.INTER.REPUL>
0.225191

>  <SCORE.INTER.ROT>
32

>  <SCORE.INTER.VDW>
-21.5803

>  <SCORE.INTER.norm>
0.0780598

>  <SCORE.INTRA>
10.8081

>  <SCORE.INTRA.DIHEDRAL>
20.8319

>  <SCORE.INTRA.DIHEDRAL.0>
47.3121

>  <SCORE.INTRA.POLAR>
-0.0738745

>  <SCORE.INTRA.POLAR.0>
-1.47808

>  <SCORE.INTRA.REPUL>
0

>  <SCORE.INTRA.REPUL.0>
0

>  <SCORE.INTRA.VDW>
0.643393

>  <SCORE.INTRA.VDW.0>
-2.78316

>  <SCORE.INTRA.norm>
0.216163

>  <SCORE.RESTR>
0.8543

>  <SCORE.RESTR.CAVITY>
0.8543

>  <SCORE.RESTR.norm>
0.017086

>  <SCORE.SYSTEM>
0

>  <SCORE.SYSTEM.CONST>
0

>  <SCORE.SYSTEM.DIHEDRAL>
0

>  <SCORE.SYSTEM.norm>
0

>  <SCORE.heavy>
50

>  <SCORE.norm>
0.311309

$$$$
