FB1.pdb
  RxDock  10072013243D
librxdock.so/0.1.0
 59 58  0  0  0  0  0  0  0  0999 V2000
    1.9071   -2.2178    3.5371 C   0  0  0  0  0  0
    3.0939   -3.1783    3.5143 C   0  0  0  0  0  0
    4.4072   -2.4527    3.1780 C   0  0  0  0  0  0
    4.6427   -2.2752    1.6572 C   0  0  0  0  0  0
    6.0257   -1.6437    1.2713 C   0  0  0  0  0  0
    6.4739   -2.2455   -0.0806 C   0  0  0  0  0  0
    6.0020   -0.0584    1.2067 C   0  0  0  0  0  0
    7.3793    0.7009    1.5114 C   0  0  0  0  0  0
    8.7258    0.5204    0.6853 C   0  0  0  0  0  0
    9.9648    1.5090    1.1425 C   0  0  0  0  0  0
   11.2227    1.0940    0.3812 C   0  0  0  0  0  0
    9.7199    3.0745    0.9578 C   0  0  0  0  0  0
    9.3332    3.7729   -0.4498 C   0  0  0  0  0  0
   10.4022    4.0945   -1.5497 C   0  0  0  0  0  0
   11.7868    4.7452   -1.0929 C   0  0  0  0  0  0
   12.5398    4.3825    0.2473 C   0  0  0  0  0  0
   13.5605    5.3858    0.8464 C   0  0  0  0  0  0
   14.0608    5.0918    2.3136 C   0  0  0  0  0  0
   12.9724    4.9117    3.3792 C   0  0  0  0  0  0
   12.4256    6.1787    4.0961 C   0  0  0  0  0  0
   11.8355    7.3614    3.2724 C   0  0  0  0  0  0
   12.8277    8.4057    2.7800 C   0  0  0  0  0  0
   10.9997    6.8639    2.1633 N   0  0  0  0  0  0
   11.3218    5.6964    4.9041 O   0  0  0  0  0  0
   14.8626    3.9063    2.2776 O   0  0  0  0  0  0
    8.4145    2.8608   -1.0748 O   0  0  0  0  0  0
    7.0887    2.1221    1.4198 O   0  0  0  0  0  0
    5.9919    2.5714    2.0834 C   0  0  0  0  0  0
    5.1285    3.3013    1.6348 O   0  0  0  0  0  0
    5.9645    1.9330    3.4447 C   0  0  0  0  0  0
    6.9461    2.5930    4.4261 C   0  0  0  0  0  0
    7.3131    4.0254    4.0177 C   0  0  0  0  0  0
    8.6782    4.4085    4.5402 C   0  0  0  0  0  0
    8.9756    4.4018    5.7298 O   0  0  0  0  0  0
    9.5413    4.7572    3.5746 O   0  0  0  0  0  0
    6.2396    2.5999    5.7888 C   0  0  0  0  0  0
    5.1134    3.0438    5.9539 O   0  0  0  0  0  0
    6.9803    2.1222    6.7983 O   0  0  0  0  0  0
    5.3731    0.4170   -0.0496 O   0  0  0  0  0  0
    4.1242    1.0113    0.0225 C   0  0  0  0  0  0
    3.5673    1.5767   -0.9095 O   0  0  0  0  0  0
    3.4973    0.8853    1.4173 C   0  0  0  0  0  0
    2.1165    1.5872    1.6052 C   0  0  0  0  0  0
    0.9258    1.0752    0.7743 C   0  0  0  0  0  0
   -0.3677    1.7531    1.1234 C   0  0  0  0  0  0
   -0.7519    2.8276    0.6824 O   0  0  0  0  0  0
   -1.1061    1.0371    1.9850 O   0  0  0  0  0  0
    1.6441    1.6855    3.0610 C   0  0  0  0  0  0
    1.7124    2.7108    3.7096 O   0  0  0  0  0  0
    1.0431    0.5809    3.5509 O   0  0  0  0  0  0
   10.6284    7.6574    1.6427 H   0  0  0  0  0  0
   10.1781    6.3991    2.5563 H   0  0  0  0  0  0
   11.7025    4.9594    5.4270 H   0  0  0  0  0  0
   14.3005    3.1678    1.9790 H   0  0  0  0  0  0
    8.0464    3.2967   -1.8615 H   0  0  0  0  0  0
    9.1597    4.8218    2.6781 H   0  0  0  0  0  0
    7.9523    2.0940    6.6160 H   0  0  0  0  0  0
   -1.7765    1.6485    2.3566 H   0  0  0  0  0  0
    0.6682    0.6730    4.4549 H   0  0  0  0  0  0
  1  2  1  0  0  0
  2  3  1  0  0  0
  3  4  1  0  0  0
  4  5  1  0  0  0
  5  6  1  0  0  0
  5  7  1  0  0  0
  7  8  1  0  0  0
  7 39  1  0  0  0
  8  9  1  0  0  0
  8 27  1  0  0  0
  9 10  1  0  0  0
 10 11  1  0  0  0
 10 12  1  0  0  0
 12 13  1  0  0  0
 13 14  1  0  0  0
 13 26  1  0  0  0
 14 15  1  0  0  0
 15 16  1  0  0  0
 16 17  1  0  0  0
 17 18  1  0  0  0
 18 19  1  0  0  0
 18 25  1  0  0  0
 19 20  1  0  0  0
 20 21  1  0  0  0
 20 24  1  0  0  0
 21 22  1  0  0  0
 21 23  1  0  0  0
 23 51  1  0  0  0
 23 52  1  0  0  0
 24 53  1  0  0  0
 25 54  1  0  0  0
 26 55  1  0  0  0
 27 28  1  0  0  0
 28 29  2  0  0  0
 28 30  1  0  0  0
 30 31  1  0  0  0
 31 32  1  0  0  0
 31 36  1  0  0  0
 32 33  1  0  0  0
 33 34  2  0  0  0
 33 35  1  0  0  0
 35 56  1  0  0  0
 36 37  2  0  0  0
 36 38  1  0  0  0
 38 57  1  0  0  0
 39 40  1  0  0  0
 40 41  2  0  0  0
 40 42  1  0  0  0
 42 43  1  0  0  0
 43 44  1  0  0  0
 43 48  1  0  0  0
 44 45  1  0  0  0
 45 46  2  0  0  0
 45 47  1  0  0  0
 47 58  1  0  0  0
 48 49  2  0  0  0
 48 50  1  0  0  0
 50 59  1  0  0  0
M  END
>  <AUTHOR>
    GENERATED BY OPEN BABEL 2.4.1

>  <CHROM.1>
-84.14876497,-175.26892808,147.41952341,151.92850122,59.90454119,109.08617796
175.57344356,48.09074312,172.98548175,-56.59765013,-79.88521071,-44.00347948
171.43911218,36.58749009,-158.05500024,168.48532890,-53.89525745,-86.75933884
-62.10373548,55.57621058,-86.61568579,52.73998656,-179.96310052,-132.27923357
77.92710208,22.24547473,-153.11384610,-51.95649014,-58.59770621,6.80129309
18.31639703,171.37221175,177.22597009,63.78942365,175.32150482,102.73042369
83.66774740,163.55891482,-174.64525231,7.04137116,2.45257617,2.16837341,2.86778543
-0.35543951,-2.21929576

>  <COMPND>
    UNNAMED

>  <MASTER>
        0    0    0    0    0    0    0    0  109    0  109    0

>  <Name>
FB1.pdb

>  <RI>
0

>  <Rbt.Current_Directory>
/home/fc/tossine/FB1_39/p3/2_clust01

>  <Rbt.Executable>
rbdock/0.1.0

>  <Rbt.Library>
librxdock.so/0.1.0

>  <Rbt.Parameter_File>
/cluster/rxdock/data/scripts/dock.prm

>  <Rbt.Receptor>
rx_3.prm

>  <SCORE>
23.6906

>  <SCORE.INTER>
6.15097

>  <SCORE.INTER.CONST>
1

>  <SCORE.INTER.POLAR>
-4.51709

>  <SCORE.INTER.REPUL>
2.50148

>  <SCORE.INTER.ROT>
32

>  <SCORE.INTER.VDW>
-28.3984

>  <SCORE.INTER.norm>
0.123019

>  <SCORE.INTRA>
14.1751

>  <SCORE.INTRA.DIHEDRAL>
17.9487

>  <SCORE.INTRA.DIHEDRAL.0>
47.3121

>  <SCORE.INTRA.POLAR>
0.594537

>  <SCORE.INTRA.POLAR.0>
-1.47808

>  <SCORE.INTRA.REPUL>
0.0740389

>  <SCORE.INTRA.REPUL.0>
0

>  <SCORE.INTRA.VDW>
2.80914

>  <SCORE.INTRA.VDW.0>
-2.78316

>  <SCORE.INTRA.norm>
0.283502

>  <SCORE.RESTR>
3.36453

>  <SCORE.RESTR.CAVITY>
3.36453

>  <SCORE.RESTR.norm>
0.0672907

>  <SCORE.SYSTEM>
0

>  <SCORE.SYSTEM.CONST>
0

>  <SCORE.SYSTEM.DIHEDRAL>
0

>  <SCORE.SYSTEM.norm>
0

>  <SCORE.heavy>
50

>  <SCORE.norm>
0.473812

$$$$
