FB1.pdb
  RxDock  10072011503D
librxdock.so/0.1.0
 59 58  0  0  0  0  0  0  0  0999 V2000
   -8.4230    2.1565    0.6905 C   0  0  0  0  0  0
   -8.6477    3.6628    0.7994 C   0  0  0  0  0  0
   -7.3358    4.4476    0.6345 C   0  0  0  0  0  0
   -7.5364    5.9830    0.5872 C   0  0  0  0  0  0
   -8.7049    6.4692   -0.3395 C   0  0  0  0  0  0
  -10.0082    6.4883    0.4921 C   0  0  0  0  0  0
   -8.4369    7.8835   -1.0071 C   0  0  0  0  0  0
   -7.2675    7.9606   -2.0992 C   0  0  0  0  0  0
   -7.0692    6.9390   -3.3013 C   0  0  0  0  0  0
   -6.9787    5.3514   -2.8623 C   0  0  0  0  0  0
   -7.2188    4.4909   -4.1016 C   0  0  0  0  0  0
   -5.6271    4.8953   -2.1481 C   0  0  0  0  0  0
   -5.0873    3.3701   -2.1164 C   0  0  0  0  0  0
   -4.0549    2.8663   -1.0504 C   0  0  0  0  0  0
   -2.5928    3.5079   -1.0498 C   0  0  0  0  0  0
   -1.8897    4.1160    0.2271 C   0  0  0  0  0  0
   -1.4879    3.1799    1.3974 C   0  0  0  0  0  0
   -0.5463    1.9659    1.0385 C   0  0  0  0  0  0
    0.9189    2.0904    1.4747 C   0  0  0  0  0  0
    1.2385    2.0810    2.9965 C   0  0  0  0  0  0
    1.9454    0.8563    3.6491 C   0  0  0  0  0  0
    2.3379    1.0013    5.1128 C   0  0  0  0  0  0
    1.1663   -0.3775    3.4318 N   0  0  0  0  0  0
    2.1552    3.1888    3.1865 O   0  0  0  0  0  0
   -1.0993    0.7870    1.6335 O   0  0  0  0  0  0
   -6.2615    2.5667   -1.9105 O   0  0  0  0  0  0
   -7.4000    9.2556   -2.7457 O   0  0  0  0  0  0
   -7.4186   10.3486   -1.9394 C   0  0  0  0  0  0
   -6.9104   10.4389   -0.8380 O   0  0  0  0  0  0
   -8.0893   11.4737   -2.6782 C   0  0  0  0  0  0
   -8.8914   12.3963   -1.7466 C   0  0  0  0  0  0
   -7.9914   13.2238   -0.8199 C   0  0  0  0  0  0
   -8.1988   12.8397    0.6268 C   0  0  0  0  0  0
   -8.5385   11.7185    0.9889 O   0  0  0  0  0  0
   -7.9734   13.8460    1.4843 O   0  0  0  0  0  0
   -9.6964   13.3264   -2.6648 C   0  0  0  0  0  0
   -9.2185   13.8682   -3.6499 O   0  0  0  0  0  0
  -10.9594   13.5366   -2.2691 O   0  0  0  0  0  0
   -9.6973    8.4899   -1.5009 O   0  0  0  0  0  0
  -10.4361    9.2745   -0.6311 C   0  0  0  0  0  0
  -10.1421    9.4839    0.5385 O   0  0  0  0  0  0
  -11.6853    9.8666   -1.2968 C   0  0  0  0  0  0
  -12.7198    8.8314   -1.8378 C   0  0  0  0  0  0
  -12.3022    7.3503   -1.8881 C   0  0  0  0  0  0
  -13.2840    6.4889   -2.6288 C   0  0  0  0  0  0
  -13.7069    5.4042   -2.2532 O   0  0  0  0  0  0
  -13.6888    7.0460   -3.7804 O   0  0  0  0  0  0
  -14.0952    8.8914   -1.1619 C   0  0  0  0  0  0
  -14.5286    7.9945   -0.4660 O   0  0  0  0  0  0
  -14.7587   10.0584   -1.3011 O   0  0  0  0  0  0
    0.4128   -0.1851    2.7732 H   0  0  0  0  0  0
    0.6960   -0.6249    4.3053 H   0  0  0  0  0  0
    2.0770    3.4134    4.1377 H   0  0  0  0  0  0
   -2.0346    0.7214    1.3662 H   0  0  0  0  0  0
   -6.7288    2.9114   -1.1312 H   0  0  0  0  0  0
   -8.1093   13.6288    2.4266 H   0  0  0  0  0  0
  -11.4598   14.1863   -2.8226 H   0  0  0  0  0  0
  -14.2658    6.3886   -4.2234 H   0  0  0  0  0  0
  -14.3499   10.7022   -1.9212 H   0  0  0  0  0  0
  1  2  1  0  0  0
  2  3  1  0  0  0
  3  4  1  0  0  0
  4  5  1  0  0  0
  5  6  1  0  0  0
  5  7  1  0  0  0
  7  8  1  0  0  0
  7 39  1  0  0  0
  8  9  1  0  0  0
  8 27  1  0  0  0
  9 10  1  0  0  0
 10 11  1  0  0  0
 10 12  1  0  0  0
 12 13  1  0  0  0
 13 14  1  0  0  0
 13 26  1  0  0  0
 14 15  1  0  0  0
 15 16  1  0  0  0
 16 17  1  0  0  0
 17 18  1  0  0  0
 18 19  1  0  0  0
 18 25  1  0  0  0
 19 20  1  0  0  0
 20 21  1  0  0  0
 20 24  1  0  0  0
 21 22  1  0  0  0
 21 23  1  0  0  0
 23 51  1  0  0  0
 23 52  1  0  0  0
 24 53  1  0  0  0
 25 54  1  0  0  0
 26 55  1  0  0  0
 27 28  1  0  0  0
 28 29  2  0  0  0
 28 30  1  0  0  0
 30 31  1  0  0  0
 31 32  1  0  0  0
 31 36  1  0  0  0
 32 33  1  0  0  0
 33 34  2  0  0  0
 33 35  1  0  0  0
 35 56  1  0  0  0
 36 37  2  0  0  0
 36 38  1  0  0  0
 38 57  1  0  0  0
 39 40  1  0  0  0
 40 41  2  0  0  0
 40 42  1  0  0  0
 42 43  1  0  0  0
 43 44  1  0  0  0
 43 48  1  0  0  0
 44 45  1  0  0  0
 45 46  2  0  0  0
 45 47  1  0  0  0
 47 58  1  0  0  0
 48 49  2  0  0  0
 48 50  1  0  0  0
 50 59  1  0  0  0
M  END
>  <AUTHOR>
    GENERATED BY OPEN BABEL 2.4.1

>  <CHROM.1>
173.85872269,-45.56368315,88.17033003,67.94369479,47.31818739,88.52016669
-54.34566795,53.99134769,162.93498796,-156.85757479,-159.33067987,-63.85215011
-52.57399073,128.44457941,66.89815866,56.03004057,105.53908134,67.24347828
52.14219289,109.08977478,174.11254611,157.97204002,9.10914951,26.42349507
146.26709619,69.23962170,-114.77179514,-44.28221044,29.41258264,179.36940172
175.81146512,-1.81117953,60.90362093,-10.54434616,-170.57459466,-113.27810070
-134.20545674,175.65197768,8.05475037,-7.18971724,6.86204444,-0.56123980
0.63257853,0.31888533,3.14130504

>  <COMPND>
    UNNAMED

>  <MASTER>
        0    0    0    0    0    0    0    0  109    0  109    0

>  <Name>
FB1.pdb

>  <RI>
0

>  <Rbt.Current_Directory>
/home/fc/tossine/FB1_39/p3/2_clust01

>  <Rbt.Executable>
rbdock/0.1.0

>  <Rbt.Library>
librxdock.so/0.1.0

>  <Rbt.Parameter_File>
/cluster/rxdock/data/scripts/dock.prm

>  <Rbt.Receptor>
rx_1.prm

>  <SCORE>
11.2202

>  <SCORE.INTER>
0.773086

>  <SCORE.INTER.CONST>
1

>  <SCORE.INTER.POLAR>
-3.95085

>  <SCORE.INTER.REPUL>
0.136343

>  <SCORE.INTER.ROT>
32

>  <SCORE.INTER.VDW>
-23.8757

>  <SCORE.INTER.norm>
0.0154617

>  <SCORE.INTRA>
8.23596

>  <SCORE.INTRA.DIHEDRAL>
14.4094

>  <SCORE.INTRA.DIHEDRAL.0>
47.3121

>  <SCORE.INTRA.POLAR>
0.478077

>  <SCORE.INTRA.POLAR.0>
-1.47808

>  <SCORE.INTRA.REPUL>
0

>  <SCORE.INTRA.REPUL.0>
0

>  <SCORE.INTRA.VDW>
-0.594199

>  <SCORE.INTRA.VDW.0>
-2.78316

>  <SCORE.INTRA.norm>
0.164719

>  <SCORE.RESTR>
2.21111

>  <SCORE.RESTR.CAVITY>
2.21111

>  <SCORE.RESTR.norm>
0.0442222

>  <SCORE.SYSTEM>
0

>  <SCORE.SYSTEM.CONST>
0

>  <SCORE.SYSTEM.DIHEDRAL>
0

>  <SCORE.SYSTEM.norm>
0

>  <SCORE.heavy>
50

>  <SCORE.norm>
0.224403

$$$$
