FB1.pdb
  RxDock  10072012453D
librxdock.so/0.1.0
 59 58  0  0  0  0  0  0  0  0999 V2000
    1.8967   -1.1212    2.2414 C   0  0  0  0  0  0
    1.7915    0.2250    2.9543 C   0  0  0  0  0  0
    2.6590    0.2666    4.2232 C   0  0  0  0  0  0
    4.1439    0.6094    3.9451 C   0  0  0  0  0  0
    4.4059    2.0829    3.4754 C   0  0  0  0  0  0
    3.7873    3.0423    4.5182 C   0  0  0  0  0  0
    5.9412    2.4101    3.2437 C   0  0  0  0  0  0
    6.5915    1.9052    1.8695 C   0  0  0  0  0  0
    7.9728    1.1280    1.7421 C   0  0  0  0  0  0
    8.5788    1.0250    0.2113 C   0  0  0  0  0  0
   10.0874    1.2590    0.2699 C   0  0  0  0  0  0
    8.2779   -0.3305   -0.5742 C   0  0  0  0  0  0
    8.4134   -0.4994   -2.1779 C   0  0  0  0  0  0
    9.6839   -0.0322   -2.9675 C   0  0  0  0  0  0
   11.1154   -0.5212   -2.4568 C   0  0  0  0  0  0
   12.4820    0.1652   -2.8517 C   0  0  0  0  0  0
   12.9627    1.4168   -2.0706 C   0  0  0  0  0  0
   14.2989    2.0903   -2.5707 C   0  0  0  0  0  0
   14.9301    3.1263   -1.6322 C   0  0  0  0  0  0
   16.1601    2.6986   -0.7823 C   0  0  0  0  0  0
   17.5947    2.7466   -1.3864 C   0  0  0  0  0  0
   18.6771    1.9973   -0.6220 C   0  0  0  0  0  0
   17.5804    2.3483   -2.8068 N   0  0  0  0  0  0
   16.1868    3.6367    0.3237 O   0  0  0  0  0  0
   15.2545    1.0515   -2.8099 O   0  0  0  0  0  0
    8.3280   -1.9158   -2.4088 O   0  0  0  0  0  0
    5.6185    1.0114    1.2638 O   0  0  0  0  0  0
    5.5195    1.0341   -0.0908 C   0  0  0  0  0  0
    6.0319    1.8474   -0.8360 O   0  0  0  0  0  0
    4.7495   -0.1799   -0.5322 C   0  0  0  0  0  0
    3.9005    0.0833   -1.7861 C   0  0  0  0  0  0
    3.4949   -1.2101   -2.5044 C   0  0  0  0  0  0
    3.0082   -2.2498   -1.5218 C   0  0  0  0  0  0
    2.4986   -1.9753   -0.4407 O   0  0  0  0  0  0
    3.1851   -3.5099   -1.9457 O   0  0  0  0  0  0
    2.6498    0.8285   -1.3000 C   0  0  0  0  0  0
    1.5193    0.3801   -1.4152 O   0  0  0  0  0  0
    2.8945    2.0394   -0.7805 O   0  0  0  0  0  0
    6.2277    3.8428    3.4991 O   0  0  0  0  0  0
    7.4218    4.1763    4.1163 C   0  0  0  0  0  0
    8.0216    5.2302    3.9492 O   0  0  0  0  0  0
    7.9257    3.0679    5.0502 C   0  0  0  0  0  0
    9.4597    2.7868    5.0017 C   0  0  0  0  0  0
   10.1201    2.6137    3.6217 C   0  0  0  0  0  0
   11.2427    1.6166    3.6296 C   0  0  0  0  0  0
   11.3859    0.7097    4.4381 O   0  0  0  0  0  0
   12.1027    1.8040    2.6168 O   0  0  0  0  0  0
   10.3161    3.7842    5.7917 C   0  0  0  0  0  0
   10.4309    4.9518    5.4749 O   0  0  0  0  0  0
   10.8557    3.3077    6.9332 O   0  0  0  0  0  0
   18.5364    2.1761   -3.1151 H   0  0  0  0  0  0
   17.2625    3.1432   -3.3658 H   0  0  0  0  0  0
   15.4053    3.4003    0.8665 H   0  0  0  0  0  0
   16.0816    1.4644   -3.1197 H   0  0  0  0  0  0
    9.1148   -2.3320   -2.0188 H   0  0  0  0  0  0
    3.6089   -3.5994   -2.8208 H   0  0  0  0  0  0
    3.7325    2.4596   -1.0968 H   0  0  0  0  0  0
   12.7359    1.0559    2.6434 H   0  0  0  0  0  0
   11.4005    3.9501    7.4400 H   0  0  0  0  0  0
  1  2  1  0  0  0
  2  3  1  0  0  0
  3  4  1  0  0  0
  4  5  1  0  0  0
  5  6  1  0  0  0
  5  7  1  0  0  0
  7  8  1  0  0  0
  7 39  1  0  0  0
  8  9  1  0  0  0
  8 27  1  0  0  0
  9 10  1  0  0  0
 10 11  1  0  0  0
 10 12  1  0  0  0
 12 13  1  0  0  0
 13 14  1  0  0  0
 13 26  1  0  0  0
 14 15  1  0  0  0
 15 16  1  0  0  0
 16 17  1  0  0  0
 17 18  1  0  0  0
 18 19  1  0  0  0
 18 25  1  0  0  0
 19 20  1  0  0  0
 20 21  1  0  0  0
 20 24  1  0  0  0
 21 22  1  0  0  0
 21 23  1  0  0  0
 23 51  1  0  0  0
 23 52  1  0  0  0
 24 53  1  0  0  0
 25 54  1  0  0  0
 26 55  1  0  0  0
 27 28  1  0  0  0
 28 29  2  0  0  0
 28 30  1  0  0  0
 30 31  1  0  0  0
 31 32  1  0  0  0
 31 36  1  0  0  0
 32 33  1  0  0  0
 33 34  2  0  0  0
 33 35  1  0  0  0
 35 56  1  0  0  0
 36 37  2  0  0  0
 36 38  1  0  0  0
 38 57  1  0  0  0
 39 40  1  0  0  0
 40 41  2  0  0  0
 40 42  1  0  0  0
 42 43  1  0  0  0
 43 44  1  0  0  0
 43 48  1  0  0  0
 44 45  1  0  0  0
 45 46  2  0  0  0
 45 47  1  0  0  0
 47 58  1  0  0  0
 48 49  2  0  0  0
 48 50  1  0  0  0
 50 59  1  0  0  0
M  END
>  <AUTHOR>
    GENERATED BY OPEN BABEL 2.4.1

>  <CHROM.1>
83.10033493,69.17953076,54.51563101,79.27249776,-132.30552909,142.07805373
-166.71715847,144.17851559,138.70458612,162.74879290,48.96762433,51.33974997
-66.61989027,-161.48251912,83.16978937,-176.94662673,-167.28860956,102.37803858
179.96485485,84.06871757,-165.31678049,69.66668042,-166.81051301,-10.46828950
147.06762499,160.97547834,45.01586356,-117.76027540,27.18277406,0.58683491
24.17127828,150.91133692,138.63440061,-48.45961103,-145.66040804,-67.02659727
23.31474750,-173.80982850,-179.71346125,8.45128799,1.33301186,0.85280075
3.11412597,0.20569378,1.11235872

>  <COMPND>
    UNNAMED

>  <MASTER>
        0    0    0    0    0    0    0    0  109    0  109    0

>  <Name>
FB1.pdb

>  <RI>
0

>  <Rbt.Current_Directory>
/home/fc/tossine/FB1_39/p3/2_clust01

>  <Rbt.Executable>
rbdock/0.1.0

>  <Rbt.Library>
librxdock.so/0.1.0

>  <Rbt.Parameter_File>
/cluster/rxdock/data/scripts/dock.prm

>  <Rbt.Receptor>
rx_2.prm

>  <SCORE>
16.0872

>  <SCORE.INTER>
0.410872

>  <SCORE.INTER.CONST>
1

>  <SCORE.INTER.POLAR>
-1.68168

>  <SCORE.INTER.REPUL>
0.00195266

>  <SCORE.INTER.ROT>
32

>  <SCORE.INTER.VDW>
-31.2812

>  <SCORE.INTER.norm>
0.00821744

>  <SCORE.INTRA>
13.1903

>  <SCORE.INTRA.DIHEDRAL>
20.4028

>  <SCORE.INTRA.DIHEDRAL.0>
47.3121

>  <SCORE.INTRA.POLAR>
0.478077

>  <SCORE.INTRA.POLAR.0>
-1.47808

>  <SCORE.INTRA.REPUL>
0

>  <SCORE.INTRA.REPUL.0>
0

>  <SCORE.INTRA.VDW>
1.36341

>  <SCORE.INTRA.VDW.0>
-2.78316

>  <SCORE.INTRA.norm>
0.263806

>  <SCORE.RESTR>
2.48605

>  <SCORE.RESTR.CAVITY>
2.48605

>  <SCORE.RESTR.norm>
0.049721

>  <SCORE.SYSTEM>
0

>  <SCORE.SYSTEM.CONST>
0

>  <SCORE.SYSTEM.DIHEDRAL>
0

>  <SCORE.SYSTEM.norm>
0

>  <SCORE.heavy>
50

>  <SCORE.norm>
0.321744

$$$$
