FB1.pdb
  RxDock  10062022313D
librxdock.so/0.1.0
 59 58  0  0  0  0  0  0  0  0999 V2000
    6.1465   -7.1819    4.4533 C   0  0  0  0  0  0
    4.6501   -6.9545    4.2524 C   0  0  0  0  0  0
    4.3760   -5.8300    3.2401 C   0  0  0  0  0  0
    2.8791   -5.4452    3.1350 C   0  0  0  0  0  0
    2.5979   -4.0643    2.4462 C   0  0  0  0  0  0
    1.0670   -3.8577    2.3797 C   0  0  0  0  0  0
    3.3047   -2.8409    3.1685 C   0  0  0  0  0  0
    3.5432   -2.9695    4.7473 C   0  0  0  0  0  0
    4.9624   -2.9395    5.4637 C   0  0  0  0  0  0
    5.0030   -3.6233    6.9644 C   0  0  0  0  0  0
    4.1774   -2.7573    7.9145 C   0  0  0  0  0  0
    4.5135   -5.1385    7.0601 C   0  0  0  0  0  0
    5.3432   -6.3155    7.7984 C   0  0  0  0  0  0
    5.2899   -6.5354    9.3492 C   0  0  0  0  0  0
    3.8898   -6.3470   10.0931 C   0  0  0  0  0  0
    3.5677   -6.9047   11.5352 C   0  0  0  0  0  0
    2.4012   -6.2871   12.3509 C   0  0  0  0  0  0
    0.9781   -6.3031   11.6700 C   0  0  0  0  0  0
    0.3726   -7.6850   11.3939 C   0  0  0  0  0  0
    0.6779   -8.3645   10.0289 C   0  0  0  0  0  0
    0.6868   -7.5300    8.7139 C   0  0  0  0  0  0
    1.0830   -8.2705    7.4443 C   0  0  0  0  0  0
   -0.5942   -6.8209    8.5329 N   0  0  0  0  0  0
    2.0317   -8.8676   10.1634 O   0  0  0  0  0  0
    0.0783   -5.5719   12.5099 O   0  0  0  0  0  0
    4.8400   -7.5357    7.2288 O   0  0  0  0  0  0
    2.8078   -1.8757    5.3598 O   0  0  0  0  0  0
    1.4984   -2.0967    5.6460 C   0  0  0  0  0  0
    0.7791   -2.9290    5.1271 O   0  0  0  0  0  0
    1.1044   -1.2050    6.7911 C   0  0  0  0  0  0
    0.4008   -1.9723    7.9218 C   0  0  0  0  0  0
    0.7557   -1.4287    9.3118 C   0  0  0  0  0  0
    0.0991   -2.2454   10.4005 C   0  0  0  0  0  0
   -1.0589   -2.0792   10.7682 O   0  0  0  0  0  0
    0.9059   -3.1769   10.9299 O   0  0  0  0  0  0
   -1.1044   -1.8154    7.6651 C   0  0  0  0  0  0
   -1.7666   -0.8961    8.1218 O   0  0  0  0  0  0
   -1.6467   -2.8006    6.9361 O   0  0  0  0  0  0
    4.5392   -2.4369    2.4524 O   0  0  0  0  0  0
    4.5529   -2.5104    1.0695 C   0  0  0  0  0  0
    3.6199   -2.9077    0.3840 O   0  0  0  0  0  0
    5.8833   -2.0326    0.4727 C   0  0  0  0  0  0
    5.7805   -1.2573   -0.8774 C   0  0  0  0  0  0
    5.1206   -1.9697   -2.0722 C   0  0  0  0  0  0
    6.0747   -2.8436   -2.8340 C   0  0  0  0  0  0
    6.9700   -3.5186   -2.3446 O   0  0  0  0  0  0
    5.8373   -2.8335   -4.1545 O   0  0  0  0  0  0
    5.1393    0.1317   -0.7678 C   0  0  0  0  0  0
    4.9625    0.6953    0.2941 O   0  0  0  0  0  0
    4.8771    0.7431   -1.9420 O   0  0  0  0  0  0
   -1.3617   -7.4644    8.7212 H   0  0  0  0  0  0
   -0.6939   -6.5736    7.5458 H   0  0  0  0  0  0
    1.9729   -9.5489   10.8661 H   0  0  0  0  0  0
   -0.0900   -6.1027   13.3102 H   0  0  0  0  0  0
    5.5881   -8.0142    6.8341 H   0  0  0  0  0  0
    0.5407   -3.6563   11.6982 H   0  0  0  0  0  0
   -2.6039   -2.6724    6.7212 H   0  0  0  0  0  0
    6.5121   -3.4136   -4.5661 H   0  0  0  0  0  0
    4.2424    1.4920   -1.8927 H   0  0  0  0  0  0
  1  2  1  0  0  0
  2  3  1  0  0  0
  3  4  1  0  0  0
  4  5  1  0  0  0
  5  6  1  0  0  0
  5  7  1  0  0  0
  7  8  1  0  0  0
  7 39  1  0  0  0
  8  9  1  0  0  0
  8 27  1  0  0  0
  9 10  1  0  0  0
 10 11  1  0  0  0
 10 12  1  0  0  0
 12 13  1  0  0  0
 13 14  1  0  0  0
 13 26  1  0  0  0
 14 15  1  0  0  0
 15 16  1  0  0  0
 16 17  1  0  0  0
 17 18  1  0  0  0
 18 19  1  0  0  0
 18 25  1  0  0  0
 19 20  1  0  0  0
 20 21  1  0  0  0
 20 24  1  0  0  0
 21 22  1  0  0  0
 21 23  1  0  0  0
 23 51  1  0  0  0
 23 52  1  0  0  0
 24 53  1  0  0  0
 25 54  1  0  0  0
 26 55  1  0  0  0
 27 28  1  0  0  0
 28 29  2  0  0  0
 28 30  1  0  0  0
 30 31  1  0  0  0
 31 32  1  0  0  0
 31 36  1  0  0  0
 32 33  1  0  0  0
 33 34  2  0  0  0
 33 35  1  0  0  0
 35 56  1  0  0  0
 36 37  2  0  0  0
 36 38  1  0  0  0
 38 57  1  0  0  0
 39 40  1  0  0  0
 40 41  2  0  0  0
 40 42  1  0  0  0
 42 43  1  0  0  0
 43 44  1  0  0  0
 43 48  1  0  0  0
 44 45  1  0  0  0
 45 46  2  0  0  0
 45 47  1  0  0  0
 47 58  1  0  0  0
 48 49  2  0  0  0
 48 50  1  0  0  0
 50 59  1  0  0  0
M  END
>  <AUTHOR>
    GENERATED BY OPEN BABEL 2.4.1

>  <CHROM.1>
-172.86126029,163.35888513,178.10325749,-29.57754566,119.26948571,36.09642204
-158.58776445,86.66441141,-67.68767381,130.42410582,81.97770633,39.04383743
122.07198486,162.24463829,159.52804573,56.74115552,63.75808457,-89.71937301
-71.32817635,-40.80917057,176.25424660,64.63526572,-45.80953460,-22.41304262
-129.40124078,144.25456345,-177.33865793,-89.81897288,-82.73275718,173.84292736
-176.32423748,-1.20245398,-143.74790657,-58.30795956,-84.65765323,13.64625032
37.06683386,179.03122571,162.81215744,2.85360471,-3.97700621,5.57890369,-1.05464973
-0.84572646,2.28396215

>  <COMPND>
    UNNAMED

>  <MASTER>
        0    0    0    0    0    0    0    0  109    0  109    0

>  <Name>
FB1.pdb

>  <RI>
0

>  <Rbt.Current_Directory>
/cluster/tossine/FB1_39T3/p3/0_clust01

>  <Rbt.Executable>
rbdock/0.1.0

>  <Rbt.Library>
librxdock.so/0.1.0

>  <Rbt.Parameter_File>
/cluster/rxdock/data/scripts/dock.prm

>  <Rbt.Receptor>
rx_0.prm

>  <SCORE>
13.0101

>  <SCORE.INTER>
5.48162

>  <SCORE.INTER.CONST>
1

>  <SCORE.INTER.POLAR>
-1.84828

>  <SCORE.INTER.REPUL>
0

>  <SCORE.INTER.ROT>
32

>  <SCORE.INTER.VDW>
-25.6342

>  <SCORE.INTER.norm>
0.109632

>  <SCORE.INTRA>
7.52844

>  <SCORE.INTRA.DIHEDRAL>
20.1013

>  <SCORE.INTRA.DIHEDRAL.0>
47.3121

>  <SCORE.INTRA.POLAR>
0.572232

>  <SCORE.INTRA.POLAR.0>
-1.47808

>  <SCORE.INTRA.REPUL>
0.0470428

>  <SCORE.INTRA.REPUL.0>
0

>  <SCORE.INTRA.VDW>
-4.70303

>  <SCORE.INTRA.VDW.0>
-2.78316

>  <SCORE.INTRA.norm>
0.150569

>  <SCORE.RESTR>
0

>  <SCORE.RESTR.CAVITY>
0

>  <SCORE.RESTR.norm>
0

>  <SCORE.SYSTEM>
0

>  <SCORE.SYSTEM.CONST>
0

>  <SCORE.SYSTEM.DIHEDRAL>
0

>  <SCORE.SYSTEM.norm>
0

>  <SCORE.heavy>
50

>  <SCORE.norm>
0.260201

$$$$
