FB1.pdb
  RxDock  10062023543D
librxdock.so/0.1.0
 59 58  0  0  0  0  0  0  0  0999 V2000
    4.5733    2.9547    2.4493 C   0  0  0  0  0  0
    5.2649    2.0308    3.4491 C   0  0  0  0  0  0
    4.2520    1.3156    4.3584 C   0  0  0  0  0  0
    4.8481    0.8719    5.7176 C   0  0  0  0  0  0
    4.0258   -0.2302    6.4724 C   0  0  0  0  0  0
    2.5710    0.2699    6.6267 C   0  0  0  0  0  0
    4.0660   -1.6483    5.7615 C   0  0  0  0  0  0
    3.2243   -2.8272    6.4457 C   0  0  0  0  0  0
    1.7617   -3.2769    6.0137 C   0  0  0  0  0  0
    0.6253   -3.2004    7.2070 C   0  0  0  0  0  0
   -0.4548   -2.2056    6.7851 C   0  0  0  0  0  0
   -0.0535   -4.5832    7.6213 C   0  0  0  0  0  0
   -1.3640   -4.7049    8.5628 C   0  0  0  0  0  0
   -2.0689   -6.0751    8.8486 C   0  0  0  0  0  0
   -1.3865   -7.0754    9.8892 C   0  0  0  0  0  0
   -1.2818   -8.6377    9.6822 C   0  0  0  0  0  0
   -0.6549   -9.5164   10.7969 C   0  0  0  0  0  0
    0.6631   -8.9688   11.4693 C   0  0  0  0  0  0
    1.7783   -8.5237   10.5150 C   0  0  0  0  0  0
    3.1795   -8.2115   11.1129 C   0  0  0  0  0  0
    4.0216   -7.0173   10.5743 C   0  0  0  0  0  0
    3.4819   -5.6233   10.8624 C   0  0  0  0  0  0
    5.4303   -7.1350   10.9963 N   0  0  0  0  0  0
    2.9226   -7.8924   12.5044 O   0  0  0  0  0  0
    0.3066   -7.8594   12.3011 O   0  0  0  0  0  0
   -0.9399   -4.2255    9.8501 O   0  0  0  0  0  0
    4.0263   -4.0315    6.3086 O   0  0  0  0  0  0
    3.9274   -4.9546    7.3003 C   0  0  0  0  0  0
    3.0349   -5.0340    8.1229 O   0  0  0  0  0  0
    5.0587   -5.9344    7.1531 C   0  0  0  0  0  0
    6.2197   -5.3741    6.3160 C   0  0  0  0  0  0
    7.2383   -4.6022    7.1645 C   0  0  0  0  0  0
    6.6995   -3.2484    7.5652 C   0  0  0  0  0  0
    6.8879   -2.2246    6.9171 O   0  0  0  0  0  0
    5.9896   -3.2713    8.7028 O   0  0  0  0  0  0
    6.8933   -6.5888    5.6628 C   0  0  0  0  0  0
    8.0929   -6.8073    5.7389 O   0  0  0  0  0  0
    6.0629   -7.3685    4.9568 O   0  0  0  0  0  0
    3.7757   -1.5290    4.3119 O   0  0  0  0  0  0
    3.8729   -2.6643    3.5247 C   0  0  0  0  0  0
    3.8712   -3.8110    3.9531 O   0  0  0  0  0  0
    3.9843   -2.3312    2.0310 C   0  0  0  0  0  0
    4.8221   -3.3310    1.1748 C   0  0  0  0  0  0
    4.1703   -4.6692    0.7814 C   0  0  0  0  0  0
    4.1703   -5.6724    1.8986 C   0  0  0  0  0  0
    3.1995   -6.3071    2.2876 O   0  0  0  0  0  0
    5.3854   -5.8324    2.4447 O   0  0  0  0  0  0
    5.4250   -2.7287   -0.1004 C   0  0  0  0  0  0
    6.6156   -2.5272   -0.2365 O   0  0  0  0  0  0
    4.5569   -2.5322   -1.1149 O   0  0  0  0  0  0
    6.0021   -7.3763   10.1880 H   0  0  0  0  0  0
    5.5164   -7.9345   11.6279 H   0  0  0  0  0  0
    3.8115   -7.8500   12.9159 H   0  0  0  0  0  0
   -0.1985   -8.1999   13.0623 H   0  0  0  0  0  0
   -1.7316   -4.0974   10.3990 H   0  0  0  0  0  0
    5.9188   -4.1453    9.1323 H   0  0  0  0  0  0
    6.5036   -8.1241    4.4945 H   0  0  0  0  0  0
    5.2944   -6.5214    3.1364 H   0  0  0  0  0  0
    3.6158   -2.7226   -0.9047 H   0  0  0  0  0  0
  1  2  1  0  0  0
  2  3  1  0  0  0
  3  4  1  0  0  0
  4  5  1  0  0  0
  5  6  1  0  0  0
  5  7  1  0  0  0
  7  8  1  0  0  0
  7 39  1  0  0  0
  8  9  1  0  0  0
  8 27  1  0  0  0
  9 10  1  0  0  0
 10 11  1  0  0  0
 10 12  1  0  0  0
 12 13  1  0  0  0
 13 14  1  0  0  0
 13 26  1  0  0  0
 14 15  1  0  0  0
 15 16  1  0  0  0
 16 17  1  0  0  0
 17 18  1  0  0  0
 18 19  1  0  0  0
 18 25  1  0  0  0
 19 20  1  0  0  0
 20 21  1  0  0  0
 20 24  1  0  0  0
 21 22  1  0  0  0
 21 23  1  0  0  0
 23 51  1  0  0  0
 23 52  1  0  0  0
 24 53  1  0  0  0
 25 54  1  0  0  0
 26 55  1  0  0  0
 27 28  1  0  0  0
 28 29  2  0  0  0
 28 30  1  0  0  0
 30 31  1  0  0  0
 31 32  1  0  0  0
 31 36  1  0  0  0
 32 33  1  0  0  0
 33 34  2  0  0  0
 33 35  1  0  0  0
 35 56  1  0  0  0
 36 37  2  0  0  0
 36 38  1  0  0  0
 38 57  1  0  0  0
 39 40  1  0  0  0
 40 41  2  0  0  0
 40 42  1  0  0  0
 42 43  1  0  0  0
 43 44  1  0  0  0
 43 48  1  0  0  0
 44 45  1  0  0  0
 45 46  2  0  0  0
 45 47  1  0  0  0
 47 58  1  0  0  0
 48 49  2  0  0  0
 48 50  1  0  0  0
 50 59  1  0  0  0
M  END
>  <AUTHOR>
    GENERATED BY OPEN BABEL 2.4.1

>  <CHROM.1>
-155.38876159,-161.49458480,-54.52337581,-178.61024004,97.13155328,175.10808788
-122.02243871,147.71016540,118.25483646,-168.43958328,174.79959936,76.45484925
167.99500884,-138.40199886,-177.09950424,-43.54579759,-49.98291537,-169.54335507
69.43285603,-141.07711254,67.99576569,170.42635872,108.45318286,18.02500796
20.22554049,87.99513808,-74.81677390,-127.69318871,-92.23455713,0.74626632
176.82898220,18.02583369,148.41444344,77.31020336,-78.37176964,109.53907021
129.71855943,-178.07896855,5.06447537,3.46648918,-4.32985034,6.41441375,1.08605240
0.66254587,-0.66127205

>  <COMPND>
    UNNAMED

>  <MASTER>
        0    0    0    0    0    0    0    0  109    0  109    0

>  <Name>
FB1.pdb

>  <RI>
0

>  <Rbt.Current_Directory>
/cluster/tossine/FB1_39T3/p3/0_clust01

>  <Rbt.Executable>
rbdock/0.1.0

>  <Rbt.Library>
librxdock.so/0.1.0

>  <Rbt.Parameter_File>
/cluster/rxdock/data/scripts/dock.prm

>  <Rbt.Receptor>
rx_2.prm

>  <SCORE>
17.7022

>  <SCORE.INTER>
10.0204

>  <SCORE.INTER.CONST>
1

>  <SCORE.INTER.POLAR>
-1.88704

>  <SCORE.INTER.REPUL>
1.31843

>  <SCORE.INTER.ROT>
32

>  <SCORE.INTER.VDW>
-27.5559

>  <SCORE.INTER.norm>
0.200407

>  <SCORE.INTRA>
7.68182

>  <SCORE.INTRA.DIHEDRAL>
12.3327

>  <SCORE.INTRA.DIHEDRAL.0>
47.3121

>  <SCORE.INTRA.POLAR>
0.533037

>  <SCORE.INTRA.POLAR.0>
-1.47808

>  <SCORE.INTRA.REPUL>
0.00761418

>  <SCORE.INTRA.REPUL.0>
0

>  <SCORE.INTRA.VDW>
-0.334907

>  <SCORE.INTRA.VDW.0>
-2.78316

>  <SCORE.INTRA.norm>
0.153636

>  <SCORE.RESTR>
0

>  <SCORE.RESTR.CAVITY>
0

>  <SCORE.RESTR.norm>
0

>  <SCORE.SYSTEM>
0

>  <SCORE.SYSTEM.CONST>
0

>  <SCORE.SYSTEM.DIHEDRAL>
0

>  <SCORE.SYSTEM.norm>
0

>  <SCORE.heavy>
50

>  <SCORE.norm>
0.354044

$$$$
