FB1.pdb
  RxDock  10072001073D
librxdock.so/0.1.0
 59 58  0  0  0  0  0  0  0  0999 V2000
   -1.6505   -5.1813    8.3505 C   0  0  0  0  0  0
   -1.4391   -3.8600    9.0859 C   0  0  0  0  0  0
   -0.6416   -4.0533   10.3862 C   0  0  0  0  0  0
   -0.3066   -2.7246   11.1086 C   0  0  0  0  0  0
    0.5175   -1.6976   10.2562 C   0  0  0  0  0  0
    0.9277   -0.5231   11.1743 C   0  0  0  0  0  0
    1.7869   -2.3356    9.5495 C   0  0  0  0  0  0
    2.6479   -1.3751    8.5995 C   0  0  0  0  0  0
    2.9577   -1.6458    7.0636 C   0  0  0  0  0  0
    3.3860   -3.1967    6.6992 C   0  0  0  0  0  0
    2.1368   -4.0736    6.7675 C   0  0  0  0  0  0
    4.1159   -3.4136    5.2974 C   0  0  0  0  0  0
    3.8159   -2.5346    3.9723 C   0  0  0  0  0  0
    3.2843   -3.1728    2.6434 C   0  0  0  0  0  0
    3.9232   -4.5529    2.1574 C   0  0  0  0  0  0
    3.4078   -5.3824    0.9161 C   0  0  0  0  0  0
    3.4194   -4.7354   -0.4941 C   0  0  0  0  0  0
    4.1932   -3.3678   -0.6365 C   0  0  0  0  0  0
    5.7207   -3.4358   -0.5158 C   0  0  0  0  0  0
    6.5476   -2.1763   -0.9007 C   0  0  0  0  0  0
    6.0699   -0.7560   -0.4764 C   0  0  0  0  0  0
    7.1568    0.2358   -0.0860 C   0  0  0  0  0  0
    5.1698   -0.1788   -1.4928 N   0  0  0  0  0  0
    7.8240   -2.3572   -0.2361 O   0  0  0  0  0  0
    3.8623   -2.8036   -1.9100 O   0  0  0  0  0  0
    2.8003   -1.5988    4.3717 O   0  0  0  0  0  0
    1.9768   -0.0860    8.6094 O   0  0  0  0  0  0
    2.7520    1.0145    8.4268 C   0  0  0  0  0  0
    2.4991    1.9611    7.7063 O   0  0  0  0  0  0
    3.9382    0.9189    9.3462 C   0  0  0  0  0  0
    5.2664    1.2060    8.6280 C   0  0  0  0  0  0
    6.3375    1.7661    9.5727 C   0  0  0  0  0  0
    5.8159    2.9568   10.3431 C   0  0  0  0  0  0
    5.0557    3.7928    9.8667 O   0  0  0  0  0  0
    6.2637    3.0139   11.6061 O   0  0  0  0  0  0
    5.7298   -0.1365    8.0457 C   0  0  0  0  0  0
    5.5530   -1.2051    8.6106 O   0  0  0  0  0  0
    6.3914   -0.0368    6.8845 O   0  0  0  0  0  0
    2.6382   -3.0563   10.5271 O   0  0  0  0  0  0
    2.7552   -4.4314   10.4113 C   0  0  0  0  0  0
    1.8252   -5.2206   10.5147 O   0  0  0  0  0  0
    4.1982   -4.8732   10.1340 C   0  0  0  0  0  0
    4.3909   -6.3842    9.7958 C   0  0  0  0  0  0
    3.5220   -6.9920    8.6795 C   0  0  0  0  0  0
    2.2542   -7.6103    9.1941 C   0  0  0  0  0  0
    2.1144   -8.1506   10.2827 O   0  0  0  0  0  0
    1.2384   -7.4971    8.3247 O   0  0  0  0  0  0
    5.8416   -6.7948    9.5148 C   0  0  0  0  0  0
    6.3249   -6.7906    8.3998 O   0  0  0  0  0  0
    6.5897   -7.0623   10.6057 O   0  0  0  0  0  0
    4.2033   -0.3209   -1.2025 H   0  0  0  0  0  0
    5.2667   -0.7157   -2.3576 H   0  0  0  0  0  0
    8.4397   -1.7667   -0.7194 H   0  0  0  0  0  0
    4.0519   -3.4697   -2.5963 H   0  0  0  0  0  0
    3.2420   -0.8008    4.7073 H   0  0  0  0  0  0
    5.9594    3.7854   12.1215 H   0  0  0  0  0  0
    6.6923   -0.9010    6.5085 H   0  0  0  0  0  0
    1.6299   -7.2225    7.4688 H   0  0  0  0  0  0
    7.5356   -7.2619   10.4273 H   0  0  0  0  0  0
  1  2  1  0  0  0
  2  3  1  0  0  0
  3  4  1  0  0  0
  4  5  1  0  0  0
  5  6  1  0  0  0
  5  7  1  0  0  0
  7  8  1  0  0  0
  7 39  1  0  0  0
  8  9  1  0  0  0
  8 27  1  0  0  0
  9 10  1  0  0  0
 10 11  1  0  0  0
 10 12  1  0  0  0
 12 13  1  0  0  0
 13 14  1  0  0  0
 13 26  1  0  0  0
 14 15  1  0  0  0
 15 16  1  0  0  0
 16 17  1  0  0  0
 17 18  1  0  0  0
 18 19  1  0  0  0
 18 25  1  0  0  0
 19 20  1  0  0  0
 20 21  1  0  0  0
 20 24  1  0  0  0
 21 22  1  0  0  0
 21 23  1  0  0  0
 23 51  1  0  0  0
 23 52  1  0  0  0
 24 53  1  0  0  0
 25 54  1  0  0  0
 26 55  1  0  0  0
 27 28  1  0  0  0
 28 29  2  0  0  0
 28 30  1  0  0  0
 30 31  1  0  0  0
 31 32  1  0  0  0
 31 36  1  0  0  0
 32 33  1  0  0  0
 33 34  2  0  0  0
 33 35  1  0  0  0
 35 56  1  0  0  0
 36 37  2  0  0  0
 36 38  1  0  0  0
 38 57  1  0  0  0
 39 40  1  0  0  0
 40 41  2  0  0  0
 40 42  1  0  0  0
 42 43  1  0  0  0
 43 44  1  0  0  0
 43 48  1  0  0  0
 44 45  1  0  0  0
 45 46  2  0  0  0
 45 47  1  0  0  0
 47 58  1  0  0  0
 48 49  2  0  0  0
 48 50  1  0  0  0
 50 59  1  0  0  0
M  END
>  <AUTHOR>
    GENERATED BY OPEN BABEL 2.4.1

>  <CHROM.1>
175.44013715,-58.25453072,-172.46635276,177.10227543,-122.69388958,113.89926050
-43.51545378,150.59078691,73.81475225,-32.73658433,-119.54571031,-42.40097229
89.97221455,174.26732891,60.14268251,10.71222561,69.51393416,169.11037679
-54.13456913,41.79234334,143.21184355,160.02794288,98.11119811,135.65566073
131.96991522,152.55109322,-52.21131804,-35.65153310,-36.73505502,178.61294926
179.89300690,-62.15770170,-171.95367376,51.96471841,-92.58796433,-91.41079805
-31.98380599,13.29119905,-175.76857068,3.67961675,-2.60501523,6.68588505
2.29840900,1.18526618,0.94450005

>  <COMPND>
    UNNAMED

>  <MASTER>
        0    0    0    0    0    0    0    0  109    0  109    0

>  <Name>
FB1.pdb

>  <RI>
0

>  <Rbt.Current_Directory>
/cluster/tossine/FB1_39T3/p3/0_clust01

>  <Rbt.Executable>
rbdock/0.1.0

>  <Rbt.Library>
librxdock.so/0.1.0

>  <Rbt.Parameter_File>
/cluster/rxdock/data/scripts/dock.prm

>  <Rbt.Receptor>
rx_4.prm

>  <SCORE>
26.6553

>  <SCORE.INTER>
-6.61787

>  <SCORE.INTER.CONST>
1

>  <SCORE.INTER.POLAR>
-3.35812

>  <SCORE.INTER.REPUL>
0.47137

>  <SCORE.INTER.ROT>
32

>  <SCORE.INTER.VDW>
-34.9571

>  <SCORE.INTER.norm>
-0.132357

>  <SCORE.INTRA>
32.8643

>  <SCORE.INTRA.DIHEDRAL>
49.3074

>  <SCORE.INTRA.DIHEDRAL.0>
47.3121

>  <SCORE.INTRA.POLAR>
1.47808

>  <SCORE.INTRA.POLAR.0>
-1.47808

>  <SCORE.INTRA.REPUL>
0

>  <SCORE.INTRA.REPUL.0>
0

>  <SCORE.INTRA.VDW>
3.18516

>  <SCORE.INTRA.VDW.0>
-2.78316

>  <SCORE.INTRA.norm>
0.657286

>  <SCORE.RESTR>
0.408814

>  <SCORE.RESTR.CAVITY>
0.408814

>  <SCORE.RESTR.norm>
0.00817628

>  <SCORE.SYSTEM>
0

>  <SCORE.SYSTEM.CONST>
0

>  <SCORE.SYSTEM.DIHEDRAL>
0

>  <SCORE.SYSTEM.norm>
0

>  <SCORE.heavy>
50

>  <SCORE.norm>
0.533105

$$$$
