FB1.pdb
  RxDock  09132011443D
librxdock.so/0.1.0
 59 58  0  0  0  0  0  0  0  0999 V2000
   -3.7859   -1.7460    7.3483 C   0  0  0  0  0  0
   -2.6310   -2.6868    7.6834 C   0  0  0  0  0  0
   -1.3684   -1.9132    8.0978 C   0  0  0  0  0  0
   -0.2309   -2.8239    8.6235 C   0  0  0  0  0  0
    1.2191   -2.3460    8.2636 C   0  0  0  0  0  0
    1.6428   -1.2672    9.2871 C   0  0  0  0  0  0
    2.2796   -3.5251    8.2102 C   0  0  0  0  0  0
    1.9523   -4.7517    7.2331 C   0  0  0  0  0  0
    2.6014   -4.9777    5.7993 C   0  0  0  0  0  0
    4.2103   -5.3418    5.8093 C   0  0  0  0  0  0
    4.3656   -6.8569    5.6891 C   0  0  0  0  0  0
    5.1008   -4.6230    4.6978 C   0  0  0  0  0  0
    4.7915   -4.6800    3.1105 C   0  0  0  0  0  0
    4.0545   -5.8903    2.4411 C   0  0  0  0  0  0
    3.8858   -5.8902    0.8534 C   0  0  0  0  0  0
    3.5661   -4.6043   -0.0061 C   0  0  0  0  0  0
    4.7330   -3.7328   -0.5412 C   0  0  0  0  0  0
    4.3387   -2.5150   -1.4635 C   0  0  0  0  0  0
    5.3412   -2.1431   -2.5632 C   0  0  0  0  0  0
    5.6128   -0.6361   -2.8343 C   0  0  0  0  0  0
    6.1906    0.2780   -1.7135 C   0  0  0  0  0  0
    5.1860    1.1258   -0.9457 C   0  0  0  0  0  0
    7.0417   -0.4964   -0.7904 N   0  0  0  0  0  0
    6.6164   -0.6260   -3.8815 O   0  0  0  0  0  0
    3.0807   -2.8152   -2.0776 O   0  0  0  0  0  0
    3.9508   -3.5419    2.8567 O   0  0  0  0  0  0
    2.2826   -5.9590    7.9719 O   0  0  0  0  0  0
    1.3316   -6.4497    8.8086 C   0  0  0  0  0  0
    0.2610   -5.9318    9.0635 O   0  0  0  0  0  0
    1.7777   -7.8006    9.2961 C   0  0  0  0  0  0
    1.7679   -7.9077   10.8293 C   0  0  0  0  0  0
    3.1369   -7.6007   11.4496 C   0  0  0  0  0  0
    3.7548   -6.3711   10.8253 C   0  0  0  0  0  0
    3.1105   -5.3814   10.4951 O   0  0  0  0  0  0
    5.0834   -6.4628   10.6663 O   0  0  0  0  0  0
    0.7296   -6.8878   11.3168 C   0  0  0  0  0  0
    1.0244   -5.7625   11.6902 O   0  0  0  0  0  0
   -0.5280   -7.3499   11.3468 O   0  0  0  0  0  0
    3.6519   -3.0021    8.0028 O   0  0  0  0  0  0
    4.7235   -3.8320    8.2873 C   0  0  0  0  0  0
    4.6374   -5.0364    8.4881 O   0  0  0  0  0  0
    6.0562   -3.0725    8.3251 C   0  0  0  0  0  0
    6.2663   -2.0164    7.1959 C   0  0  0  0  0  0
    5.7527   -0.5855    7.4392 C   0  0  0  0  0  0
    4.9428   -0.0503    6.2937 C   0  0  0  0  0  0
    5.1639   -0.2523    5.1076 O   0  0  0  0  0  0
    3.8985    0.6858    6.7034 O   0  0  0  0  0  0
    7.7103   -1.8999    6.6924 C   0  0  0  0  0  0
    8.6047   -2.6264    7.0784 O   0  0  0  0  0  0
    7.9089   -1.0017    5.7050 O   0  0  0  0  0  0
    7.2152    0.0569    0.0476 H   0  0  0  0  0  0
    7.9615   -0.6196   -1.2198 H   0  0  0  0  0  0
    6.7324    0.3221   -4.1028 H   0  0  0  0  0  0
    2.8700   -2.0994   -2.7051 H   0  0  0  0  0  0
    3.1012   -3.6896    3.3049 H   0  0  0  0  0  0
    5.4864   -7.2889   10.9959 H   0  0  0  0  0  0
   -1.1848   -6.7258   11.7441 H   0  0  0  0  0  0
    3.4223    0.9727    5.8958 H   0  0  0  0  0  0
    7.1283   -0.4497    5.4765 H   0  0  0  0  0  0
  1  2  1  0  0  0
  2  3  1  0  0  0
  3  4  1  0  0  0
  4  5  1  0  0  0
  5  6  1  0  0  0
  5  7  1  0  0  0
  7  8  1  0  0  0
  7 39  1  0  0  0
  8  9  1  0  0  0
  8 27  1  0  0  0
  9 10  1  0  0  0
 10 11  1  0  0  0
 10 12  1  0  0  0
 12 13  1  0  0  0
 13 14  1  0  0  0
 13 26  1  0  0  0
 14 15  1  0  0  0
 15 16  1  0  0  0
 16 17  1  0  0  0
 17 18  1  0  0  0
 18 19  1  0  0  0
 18 25  1  0  0  0
 19 20  1  0  0  0
 20 21  1  0  0  0
 20 24  1  0  0  0
 21 22  1  0  0  0
 21 23  1  0  0  0
 23 51  1  0  0  0
 23 52  1  0  0  0
 24 53  1  0  0  0
 25 54  1  0  0  0
 26 55  1  0  0  0
 27 28  1  0  0  0
 28 29  2  0  0  0
 28 30  1  0  0  0
 30 31  1  0  0  0
 31 32  1  0  0  0
 31 36  1  0  0  0
 32 33  1  0  0  0
 33 34  2  0  0  0
 33 35  1  0  0  0
 35 56  1  0  0  0
 36 37  2  0  0  0
 36 38  1  0  0  0
 38 57  1  0  0  0
 39 40  1  0  0  0
 40 41  2  0  0  0
 40 42  1  0  0  0
 42 43  1  0  0  0
 43 44  1  0  0  0
 43 48  1  0  0  0
 44 45  1  0  0  0
 45 46  2  0  0  0
 45 47  1  0  0  0
 47 58  1  0  0  0
 48 49  2  0  0  0
 48 50  1  0  0  0
 50 59  1  0  0  0
M  END
>  <AUTHOR>
    GENERATED BY OPEN BABEL 2.4.1

>  <CHROM.1>
172.46398517,145.14542073,82.20446160,55.50464587,101.71828560,162.84644279
67.95963408,84.42741994,97.94643661,-54.47781743,-28.61190635,-176.00275627
-66.96654377,-38.69474110,88.90277665,176.43399394,-147.57565105,-139.05298325
-175.31873261,60.61573559,-98.22132960,175.48278518,-166.07966043,-4.90601190
126.62776335,-94.61433087,44.91629116,-96.34973215,37.58077108,-1.91653129
174.25116977,12.66309964,-42.39478289,87.86014408,-131.37866735,4.40961984
-37.30191702,-178.77586365,6.13066270,3.54713995,-3.60055266,5.73553700,1.91564569
0.33032401,1.80347002

>  <COMPND>
    UNNAMED

>  <MASTER>
        0    0    0    0    0    0    0    0  109    0  109    0

>  <Name>
FB1.pdb

>  <RI>
0

>  <Rbt.Current_Directory>
/home/fc/tossine/FB1_39T3/p3/0_clust01

>  <Rbt.Executable>
rbdock/0.1.0

>  <Rbt.Library>
librxdock.so/0.1.0

>  <Rbt.Parameter_File>
/cluster/rxdock/data/scripts/dock.prm

>  <Rbt.Receptor>
rx_4.prm

>  <SCORE>
20.3798

>  <SCORE.INTER>
5.10553

>  <SCORE.INTER.CONST>
1

>  <SCORE.INTER.POLAR>
-1.69166

>  <SCORE.INTER.REPUL>
0.0984818

>  <SCORE.INTER.ROT>
32

>  <SCORE.INTER.VDW>
-27.0352

>  <SCORE.INTER.norm>
0.102111

>  <SCORE.INTRA>
14.377

>  <SCORE.INTRA.DIHEDRAL>
17.1515

>  <SCORE.INTRA.DIHEDRAL.0>
47.3121

>  <SCORE.INTRA.POLAR>
1.47808

>  <SCORE.INTRA.POLAR.0>
-1.47808

>  <SCORE.INTRA.REPUL>
0.00241402

>  <SCORE.INTRA.REPUL.0>
0

>  <SCORE.INTRA.VDW>
0.76373

>  <SCORE.INTRA.VDW.0>
-2.78316

>  <SCORE.INTRA.norm>
0.28754

>  <SCORE.RESTR>
0.897292

>  <SCORE.RESTR.CAVITY>
0.897292

>  <SCORE.RESTR.norm>
0.0179458

>  <SCORE.SYSTEM>
0

>  <SCORE.SYSTEM.CONST>
0

>  <SCORE.SYSTEM.DIHEDRAL>
0

>  <SCORE.SYSTEM.norm>
0

>  <SCORE.heavy>
50

>  <SCORE.norm>
0.407597

$$$$
