FB1.pdb
  RxDock  10072001093D
librxdock.so/0.1.0
 59 58  0  0  0  0  0  0  0  0999 V2000
    5.8684   -6.6792    8.6545 C   0  0  0  0  0  0
    6.5886   -7.1931    7.4101 C   0  0  0  0  0  0
    6.1588   -6.4288    6.1471 C   0  0  0  0  0  0
    6.6964   -4.9771    6.0908 C   0  0  0  0  0  0
    5.9343   -3.9536    7.0030 C   0  0  0  0  0  0
    6.8618   -2.7421    7.2536 C   0  0  0  0  0  0
    4.5408   -3.4871    6.4041 C   0  0  0  0  0  0
    4.5407   -2.9614    4.8909 C   0  0  0  0  0  0
    3.2595   -2.8715    3.9536 C   0  0  0  0  0  0
    3.2769   -3.8779    2.6466 C   0  0  0  0  0  0
    1.9388   -3.7525    1.9199 C   0  0  0  0  0  0
    4.4705   -3.6638    1.6102 C   0  0  0  0  0  0
    4.7812   -2.2640    0.8602 C   0  0  0  0  0  0
    5.1484   -0.9558    1.6412 C   0  0  0  0  0  0
    5.6871    0.2965    0.8101 C   0  0  0  0  0  0
    4.8377    1.0807   -0.2660 C   0  0  0  0  0  0
    5.2748    2.5065   -0.6942 C   0  0  0  0  0  0
    6.5928    2.6117   -1.5550 C   0  0  0  0  0  0
    6.8642    3.9674   -2.2191 C   0  0  0  0  0  0
    7.9870    4.0514   -3.2917 C   0  0  0  0  0  0
    8.1745    5.3429   -4.1416 C   0  0  0  0  0  0
    9.2858    5.3142   -5.1816 C   0  0  0  0  0  0
    6.8966    5.7637   -4.7469 N   0  0  0  0  0  0
    9.2216    3.9121   -2.5432 O   0  0  0  0  0  0
    7.7009    2.2908   -0.7071 O   0  0  0  0  0  0
    5.9209   -2.5360    0.0272 O   0  0  0  0  0  0
    5.0519   -1.6015    4.9330 O   0  0  0  0  0  0
    4.1777   -0.6247    5.2894 C   0  0  0  0  0  0
    3.8121    0.3027    4.5926 O   0  0  0  0  0  0
    3.6520   -0.9347    6.6638 C   0  0  0  0  0  0
    2.4022   -0.1127    7.0170 C   0  0  0  0  0  0
    1.5284   -0.7960    8.0767 C   0  0  0  0  0  0
    2.3133   -1.0653    9.3395 C   0  0  0  0  0  0
    2.2147   -0.3878   10.3568 O   0  0  0  0  0  0
    3.1326   -2.1229    9.2441 O   0  0  0  0  0  0
    2.9178    1.2317    7.5487 C   0  0  0  0  0  0
    2.6210    2.3054    7.0472 O   0  0  0  0  0  0
    3.7640    1.1295    8.5829 O   0  0  0  0  0  0
    3.4896   -4.5073    6.6366 O   0  0  0  0  0  0
    2.1657   -4.1008    6.6388 C   0  0  0  0  0  0
    1.7624   -3.0394    6.1816 O   0  0  0  0  0  0
    1.2376   -5.1379    7.2850 C   0  0  0  0  0  0
    1.2989   -5.2249    8.8416 C   0  0  0  0  0  0
   -0.0243   -5.4008    9.6089 C   0  0  0  0  0  0
   -0.0256   -4.7101   10.9421 C   0  0  0  0  0  0
   -0.1696   -5.2549   12.0278 O   0  0  0  0  0  0
    0.1723   -3.3873   10.8349 O   0  0  0  0  0  0
    2.2794   -6.2724    9.3836 C   0  0  0  0  0  0
    2.9000   -6.1232   10.4177 O   0  0  0  0  0  0
    2.3328   -7.4292    8.6907 O   0  0  0  0  0  0
    6.6602    6.6971   -4.4131 H   0  0  0  0  0  0
    6.1520    5.1602   -4.3907 H   0  0  0  0  0  0
    9.9185    3.8368   -3.2287 H   0  0  0  0  0  0
    8.5221    2.4318   -1.2133 H   0  0  0  0  0  0
    6.6810   -2.7134    0.6062 H   0  0  0  0  0  0
    3.5537   -2.4004   10.0802 H   0  0  0  0  0  0
    4.1400    1.9909    8.8917 H   0  0  0  0  0  0
    0.1217   -3.0208   11.7428 H   0  0  0  0  0  0
    2.8334   -8.1555    9.1245 H   0  0  0  0  0  0
  1  2  1  0  0  0
  2  3  1  0  0  0
  3  4  1  0  0  0
  4  5  1  0  0  0
  5  6  1  0  0  0
  5  7  1  0  0  0
  7  8  1  0  0  0
  7 39  1  0  0  0
  8  9  1  0  0  0
  8 27  1  0  0  0
  9 10  1  0  0  0
 10 11  1  0  0  0
 10 12  1  0  0  0
 12 13  1  0  0  0
 13 14  1  0  0  0
 13 26  1  0  0  0
 14 15  1  0  0  0
 15 16  1  0  0  0
 16 17  1  0  0  0
 17 18  1  0  0  0
 18 19  1  0  0  0
 18 25  1  0  0  0
 19 20  1  0  0  0
 20 21  1  0  0  0
 20 24  1  0  0  0
 21 22  1  0  0  0
 21 23  1  0  0  0
 23 51  1  0  0  0
 23 52  1  0  0  0
 24 53  1  0  0  0
 25 54  1  0  0  0
 26 55  1  0  0  0
 27 28  1  0  0  0
 28 29  2  0  0  0
 28 30  1  0  0  0
 30 31  1  0  0  0
 31 32  1  0  0  0
 31 36  1  0  0  0
 32 33  1  0  0  0
 33 34  2  0  0  0
 33 35  1  0  0  0
 35 56  1  0  0  0
 36 37  2  0  0  0
 36 38  1  0  0  0
 38 57  1  0  0  0
 39 40  1  0  0  0
 40 41  2  0  0  0
 40 42  1  0  0  0
 42 43  1  0  0  0
 43 44  1  0  0  0
 43 48  1  0  0  0
 44 45  1  0  0  0
 45 46  2  0  0  0
 45 47  1  0  0  0
 47 58  1  0  0  0
 48 49  2  0  0  0
 48 50  1  0  0  0
 50 59  1  0  0  0
M  END
>  <AUTHOR>
    GENERATED BY OPEN BABEL 2.4.1

>  <CHROM.1>
71.53846480,-77.10245417,159.08362698,-50.86246939,160.20587634,156.71192385
-114.25072038,-80.66298873,175.47165759,-56.90835510,61.15831369,169.31011421
-66.70448215,64.08912797,161.51207904,70.10836826,167.69477265,-168.34242063
-175.02486954,171.31821824,-178.92565512,172.19774342,119.60293591,-116.67507575
-165.13889698,155.34178148,57.39715316,121.69278756,102.88358499,-171.44134719
176.47377977,16.86282927,74.86426892,139.30424631,-146.36917651,146.44488390
-119.35329074,177.90381534,-169.41890287,4.21201927,-1.66230992,4.76962482
-2.30268909,1.04494367,-0.31718459

>  <COMPND>
    UNNAMED

>  <MASTER>
        0    0    0    0    0    0    0    0  109    0  109    0

>  <Name>
FB1.pdb

>  <RI>
0

>  <Rbt.Current_Directory>
/cluster/tossine/FB1_39T3/p3/0_clust01

>  <Rbt.Executable>
rbdock/0.1.0

>  <Rbt.Library>
librxdock.so/0.1.0

>  <Rbt.Parameter_File>
/cluster/rxdock/data/scripts/dock.prm

>  <Rbt.Receptor>
rx_4.prm

>  <SCORE>
10.628

>  <SCORE.INTER>
1.54083

>  <SCORE.INTER.CONST>
1

>  <SCORE.INTER.POLAR>
-2.71027

>  <SCORE.INTER.REPUL>
0.0632548

>  <SCORE.INTER.ROT>
32

>  <SCORE.INTER.VDW>
-26.9605

>  <SCORE.INTER.norm>
0.0308166

>  <SCORE.INTRA>
9.08719

>  <SCORE.INTRA.DIHEDRAL>
13.442

>  <SCORE.INTRA.DIHEDRAL.0>
47.3121

>  <SCORE.INTRA.POLAR>
0.776327

>  <SCORE.INTRA.POLAR.0>
-1.47808

>  <SCORE.INTRA.REPUL>
0

>  <SCORE.INTRA.REPUL.0>
0

>  <SCORE.INTRA.VDW>
-0.273322

>  <SCORE.INTRA.VDW.0>
-2.78316

>  <SCORE.INTRA.norm>
0.181744

>  <SCORE.RESTR>
0

>  <SCORE.RESTR.CAVITY>
0

>  <SCORE.RESTR.norm>
0

>  <SCORE.SYSTEM>
0

>  <SCORE.SYSTEM.CONST>
0

>  <SCORE.SYSTEM.DIHEDRAL>
0

>  <SCORE.SYSTEM.norm>
0

>  <SCORE.heavy>
50

>  <SCORE.norm>
0.21256

$$$$
