FB1.pdb
  RxDock  10062023553D
librxdock.so/0.1.0
 59 58  0  0  0  0  0  0  0  0999 V2000
    5.3295   -2.4933   -0.2737 C   0  0  0  0  0  0
    5.9268   -3.8721   -0.0026 C   0  0  0  0  0  0
    4.9557   -4.7688    0.7830 C   0  0  0  0  0  0
    4.6458   -4.2444    2.2073 C   0  0  0  0  0  0
    3.8096   -5.2219    3.1048 C   0  0  0  0  0  0
    4.6930   -6.4444    3.4451 C   0  0  0  0  0  0
    3.2459   -4.5443    4.4243 C   0  0  0  0  0  0
    2.5082   -3.1323    4.2567 C   0  0  0  0  0  0
    1.0800   -2.7694    4.8542 C   0  0  0  0  0  0
    1.0249   -2.6252    6.4966 C   0  0  0  0  0  0
   -0.2290   -1.8376    6.8726 C   0  0  0  0  0  0
    1.0684   -3.9885    7.3239 C   0  0  0  0  0  0
   -0.2460   -4.7900    7.8224 C   0  0  0  0  0  0
   -0.1826   -6.2673    8.3415 C   0  0  0  0  0  0
    0.8569   -6.6185    9.5014 C   0  0  0  0  0  0
    0.6762   -6.1992   11.0135 C   0  0  0  0  0  0
    1.8360   -6.4367   12.0165 C   0  0  0  0  0  0
    2.5972   -7.8138   11.9018 C   0  0  0  0  0  0
    1.7214   -9.0719   11.8491 C   0  0  0  0  0  0
    2.4197  -10.4492   11.6658 C   0  0  0  0  0  0
    1.6095  -11.7719   11.8048 C   0  0  0  0  0  0
    2.4147  -13.0638   11.7957 C   0  0  0  0  0  0
    0.7121  -11.7181   12.9745 N   0  0  0  0  0  0
    2.8936  -10.4415   10.2950 O   0  0  0  0  0  0
    3.4071   -7.7738   10.7219 O   0  0  0  0  0  0
   -0.7478   -4.0240    8.9306 O   0  0  0  0  0  0
    3.4005   -2.1373    4.8279 O   0  0  0  0  0  0
    4.1259   -1.3874    3.9580 C   0  0  0  0  0  0
    4.2155   -1.5631    2.7578 O   0  0  0  0  0  0
    4.7260   -0.2323    4.7110 C   0  0  0  0  0  0
    3.9729    0.0778    6.0145 C   0  0  0  0  0  0
    4.4919   -0.7411    7.2033 C   0  0  0  0  0  0
    5.8942   -0.3243    7.5816 C   0  0  0  0  0  0
    6.1482    0.4432    8.5037 O   0  0  0  0  0  0
    6.8423   -0.8773    6.8108 O   0  0  0  0  0  0
    4.1827    1.5756    6.2768 C   0  0  0  0  0  0
    4.6288    2.3435    5.4380 O   0  0  0  0  0  0
    3.8819    1.9662    7.5229 O   0  0  0  0  0  0
    2.4353   -5.5029    5.2142 O   0  0  0  0  0  0
    3.0607   -6.2256    6.2165 C   0  0  0  0  0  0
    2.5547   -7.1644    6.8175 O   0  0  0  0  0  0
    4.4809   -5.7198    6.5018 C   0  0  0  0  0  0
    4.8502   -5.5518    8.0084 C   0  0  0  0  0  0
    3.7656   -5.0225    8.9644 C   0  0  0  0  0  0
    4.0918   -3.6706    9.5305 C   0  0  0  0  0  0
    3.3998   -2.6672    9.4257 O   0  0  0  0  0  0
    5.2505   -3.6635   10.2071 O   0  0  0  0  0  0
    5.4572   -6.8009    8.6592 C   0  0  0  0  0  0
    5.3598   -7.9112    8.1750 O   0  0  0  0  0  0
    6.2054   -6.5754    9.7595 O   0  0  0  0  0  0
    0.0771  -12.5146   12.9453 H   0  0  0  0  0  0
    0.1092  -10.8971   12.8862 H   0  0  0  0  0  0
    2.0816  -10.5302    9.7527 H   0  0  0  0  0  0
    3.8357   -8.6433   10.6175 H   0  0  0  0  0  0
   -1.5582   -4.4542    9.2510 H   0  0  0  0  0  0
    6.5262   -1.5560    6.1840 H   0  0  0  0  0  0
    4.1375    2.8985    7.7334 H   0  0  0  0  0  0
    5.5453   -4.5965   10.2698 H   0  0  0  0  0  0
    6.6335   -7.3713   10.1462 H   0  0  0  0  0  0
  1  2  1  0  0  0
  2  3  1  0  0  0
  3  4  1  0  0  0
  4  5  1  0  0  0
  5  6  1  0  0  0
  5  7  1  0  0  0
  7  8  1  0  0  0
  7 39  1  0  0  0
  8  9  1  0  0  0
  8 27  1  0  0  0
  9 10  1  0  0  0
 10 11  1  0  0  0
 10 12  1  0  0  0
 12 13  1  0  0  0
 13 14  1  0  0  0
 13 26  1  0  0  0
 14 15  1  0  0  0
 15 16  1  0  0  0
 16 17  1  0  0  0
 17 18  1  0  0  0
 18 19  1  0  0  0
 18 25  1  0  0  0
 19 20  1  0  0  0
 20 21  1  0  0  0
 20 24  1  0  0  0
 21 22  1  0  0  0
 21 23  1  0  0  0
 23 51  1  0  0  0
 23 52  1  0  0  0
 24 53  1  0  0  0
 25 54  1  0  0  0
 26 55  1  0  0  0
 27 28  1  0  0  0
 28 29  2  0  0  0
 28 30  1  0  0  0
 30 31  1  0  0  0
 31 32  1  0  0  0
 31 36  1  0  0  0
 32 33  1  0  0  0
 33 34  2  0  0  0
 33 35  1  0  0  0
 35 56  1  0  0  0
 36 37  2  0  0  0
 36 38  1  0  0  0
 38 57  1  0  0  0
 39 40  1  0  0  0
 40 41  2  0  0  0
 40 42  1  0  0  0
 42 43  1  0  0  0
 43 44  1  0  0  0
 43 48  1  0  0  0
 44 45  1  0  0  0
 45 46  2  0  0  0
 45 47  1  0  0  0
 47 58  1  0  0  0
 48 49  2  0  0  0
 48 50  1  0  0  0
 50 59  1  0  0  0
M  END
>  <AUTHOR>
    GENERATED BY OPEN BABEL 2.4.1

>  <CHROM.1>
-64.38204467,-172.45580506,68.74455168,48.23817345,129.96030538,93.26725223
69.80036772,102.19535889,161.13982915,-93.33937651,165.89254245,52.69415696
178.38131281,73.67316784,-172.17214330,-42.16816378,-49.42949045,177.04845590
-176.50212132,171.37121192,-171.96522291,-71.93418902,169.75123597,-8.73012933
-21.49500922,87.68675062,67.81810472,13.14579927,98.81639474,-7.28494445
171.62777042,-169.96868527,134.54087603,-37.93462792,-113.87678051,-17.55164171
122.28145877,-7.75029026,-176.79597422,3.32303217,-4.60414496,7.30553009
-0.41289160,-1.33515527,-2.68726853

>  <COMPND>
    UNNAMED

>  <MASTER>
        0    0    0    0    0    0    0    0  109    0  109    0

>  <Name>
FB1.pdb

>  <RI>
0

>  <Rbt.Current_Directory>
/cluster/tossine/FB1_39T3/p3/0_clust01

>  <Rbt.Executable>
rbdock/0.1.0

>  <Rbt.Library>
librxdock.so/0.1.0

>  <Rbt.Parameter_File>
/cluster/rxdock/data/scripts/dock.prm

>  <Rbt.Receptor>
rx_2.prm

>  <SCORE>
8.08563

>  <SCORE.INTER>
4.766

>  <SCORE.INTER.CONST>
1

>  <SCORE.INTER.POLAR>
-1.65599

>  <SCORE.INTER.REPUL>
1.16871

>  <SCORE.INTER.ROT>
32

>  <SCORE.INTER.VDW>
-32.8472

>  <SCORE.INTER.norm>
0.09532

>  <SCORE.INTRA>
3.31963

>  <SCORE.INTRA.DIHEDRAL>
0.420118

>  <SCORE.INTRA.DIHEDRAL.0>
47.3121

>  <SCORE.INTRA.POLAR>
0.0695411

>  <SCORE.INTRA.POLAR.0>
-1.47808

>  <SCORE.INTRA.REPUL>
0.00152369

>  <SCORE.INTRA.REPUL.0>
0

>  <SCORE.INTRA.VDW>
2.86552

>  <SCORE.INTRA.VDW.0>
-2.78316

>  <SCORE.INTRA.norm>
0.0663927

>  <SCORE.RESTR>
0

>  <SCORE.RESTR.CAVITY>
0

>  <SCORE.RESTR.norm>
0

>  <SCORE.SYSTEM>
0

>  <SCORE.SYSTEM.CONST>
0

>  <SCORE.SYSTEM.DIHEDRAL>
0

>  <SCORE.SYSTEM.norm>
0

>  <SCORE.heavy>
50

>  <SCORE.norm>
0.161713

$$$$
