FB1.pdb
  RxDock  10062023553D
librxdock.so/0.1.0
 59 58  0  0  0  0  0  0  0  0999 V2000
    3.5052   -5.8929   10.9244 C   0  0  0  0  0  0
    3.2634   -5.1477    9.6138 C   0  0  0  0  0  0
    2.1752   -5.8262    8.7654 C   0  0  0  0  0  0
    1.7393   -4.9899    7.5364 C   0  0  0  0  0  0
    2.8637   -4.7450    6.4705 C   0  0  0  0  0  0
    3.0429   -6.0413    5.6471 C   0  0  0  0  0  0
    2.5780   -3.5052    5.5222 C   0  0  0  0  0  0
    2.5171   -2.0615    6.2137 C   0  0  0  0  0  0
    1.9254   -1.7634    7.6591 C   0  0  0  0  0  0
    0.2804   -1.6644    7.7347 C   0  0  0  0  0  0
   -0.3003   -2.2485    6.4479 C   0  0  0  0  0  0
   -0.4085   -2.3576    8.9954 C   0  0  0  0  0  0
   -1.1342   -3.8034    8.9523 C   0  0  0  0  0  0
   -1.3493   -4.6741   10.2375 C   0  0  0  0  0  0
   -0.0693   -5.3299   10.9309 C   0  0  0  0  0  0
   -0.1296   -6.2727   12.1966 C   0  0  0  0  0  0
   -1.0598   -7.5144   12.1814 C   0  0  0  0  0  0
   -0.8085   -8.5703   11.0364 C   0  0  0  0  0  0
    0.3031   -9.5961   11.2902 C   0  0  0  0  0  0
    1.7803   -9.1157   11.2177 C   0  0  0  0  0  0
    2.9510  -10.1246   11.4099 C   0  0  0  0  0  0
    2.8425  -11.4406   10.6525 C   0  0  0  0  0  0
    4.2512   -9.4756   11.1556 N   0  0  0  0  0  0
    1.9371   -8.6116    9.8667 O   0  0  0  0  0  0
   -2.0339   -9.2747   10.8084 O   0  0  0  0  0  0
   -2.4560   -3.5386    8.4529 O   0  0  0  0  0  0
    3.8886   -1.5851    6.2812 O   0  0  0  0  0  0
    4.0701   -0.2550    6.4887 C   0  0  0  0  0  0
    3.2058    0.6006    6.4700 O   0  0  0  0  0  0
    5.5114   -0.0217    6.8490 C   0  0  0  0  0  0
    5.8209   -0.3852    8.3100 C   0  0  0  0  0  0
    4.9784    0.4194    9.3080 C   0  0  0  0  0  0
    5.3614    1.8811    9.2907 C   0  0  0  0  0  0
    6.5208    2.2789    9.3248 O   0  0  0  0  0  0
    4.3077    2.7089    9.2325 O   0  0  0  0  0  0
    5.5102   -1.8821    8.4471 C   0  0  0  0  0  0
    4.6286   -2.3165    9.1727 O   0  0  0  0  0  0
    6.3207   -2.6822    7.7407 O   0  0  0  0  0  0
    3.4750   -3.5167    4.3410 O   0  0  0  0  0  0
    2.9259   -3.7893    3.0992 C   0  0  0  0  0  0
    1.9969   -3.1700    2.5974 O   0  0  0  0  0  0
    3.6153   -4.9699    2.4025 C   0  0  0  0  0  0
    3.5791   -4.9509    0.8427 C   0  0  0  0  0  0
    2.2934   -4.4565    0.1550 C   0  0  0  0  0  0
    1.8712   -5.3260   -0.9940 C   0  0  0  0  0  0
    0.7181   -5.6089   -1.2887 O   0  0  0  0  0  0
    2.9142   -5.7700   -1.7119 O   0  0  0  0  0  0
    4.7548   -4.2166    0.1865 C   0  0  0  0  0  0
    4.6061   -3.3310   -0.6323 O   0  0  0  0  0  0
    5.9770   -4.5431    0.6567 O   0  0  0  0  0  0
    5.0005  -10.1125   11.4229 H   0  0  0  0  0  0
    4.3467   -8.6769   11.7869 H   0  0  0  0  0  0
    2.8947   -8.4174    9.7854 H   0  0  0  0  0  0
   -2.7083   -8.6290   10.5278 H   0  0  0  0  0  0
   -2.7192   -4.2847    7.8885 H   0  0  0  0  0  0
    3.4350    2.2715    9.2092 H   0  0  0  0  0  0
    6.1347   -3.6484    7.8437 H   0  0  0  0  0  0
    2.5491   -6.3655   -2.3999 H   0  0  0  0  0  0
    6.7340   -4.1823    0.1439 H   0  0  0  0  0  0
  1  2  1  0  0  0
  2  3  1  0  0  0
  3  4  1  0  0  0
  4  5  1  0  0  0
  5  6  1  0  0  0
  5  7  1  0  0  0
  7  8  1  0  0  0
  7 39  1  0  0  0
  8  9  1  0  0  0
  8 27  1  0  0  0
  9 10  1  0  0  0
 10 11  1  0  0  0
 10 12  1  0  0  0
 12 13  1  0  0  0
 13 14  1  0  0  0
 13 26  1  0  0  0
 14 15  1  0  0  0
 15 16  1  0  0  0
 16 17  1  0  0  0
 17 18  1  0  0  0
 18 19  1  0  0  0
 18 25  1  0  0  0
 19 20  1  0  0  0
 20 21  1  0  0  0
 20 24  1  0  0  0
 21 22  1  0  0  0
 21 23  1  0  0  0
 23 51  1  0  0  0
 23 52  1  0  0  0
 24 53  1  0  0  0
 25 54  1  0  0  0
 26 55  1  0  0  0
 27 28  1  0  0  0
 28 29  2  0  0  0
 28 30  1  0  0  0
 30 31  1  0  0  0
 31 32  1  0  0  0
 31 36  1  0  0  0
 32 33  1  0  0  0
 33 34  2  0  0  0
 33 35  1  0  0  0
 35 56  1  0  0  0
 36 37  2  0  0  0
 36 38  1  0  0  0
 38 57  1  0  0  0
 39 40  1  0  0  0
 40 41  2  0  0  0
 40 42  1  0  0  0
 42 43  1  0  0  0
 43 44  1  0  0  0
 43 48  1  0  0  0
 44 45  1  0  0  0
 45 46  2  0  0  0
 45 47  1  0  0  0
 47 58  1  0  0  0
 48 49  2  0  0  0
 48 50  1  0  0  0
 50 59  1  0  0  0
M  END
>  <AUTHOR>
    GENERATED BY OPEN BABEL 2.4.1

>  <CHROM.1>
170.97491645,63.62112430,76.90126991,63.82474794,-35.91507352,110.08588227
-79.71646302,162.62458231,14.76866234,-101.25893899,158.03431394,-69.64913028
143.97958062,-177.67224267,52.94562940,58.33927259,82.90661775,-72.93277536
60.80453664,-177.53087815,45.78899526,-172.91031028,171.55109930,-9.11764422
-78.07025861,-59.20456027,-67.68762413,-116.00810997,-46.93476839,0.03245770
178.70721718,55.74324686,-152.35771746,-38.38170207,-135.63117259,-126.98954934
142.42274120,176.73216347,170.73825943,2.54621642,-4.18515431,6.95064656
-2.32584619,-1.15733348,-1.83479148

>  <COMPND>
    UNNAMED

>  <MASTER>
        0    0    0    0    0    0    0    0  109    0  109    0

>  <Name>
FB1.pdb

>  <RI>
0

>  <Rbt.Current_Directory>
/cluster/tossine/FB1_39T3/p3/0_clust01

>  <Rbt.Executable>
rbdock/0.1.0

>  <Rbt.Library>
librxdock.so/0.1.0

>  <Rbt.Parameter_File>
/cluster/rxdock/data/scripts/dock.prm

>  <Rbt.Receptor>
rx_2.prm

>  <SCORE>
9.44555

>  <SCORE.INTER>
-3.57115

>  <SCORE.INTER.CONST>
1

>  <SCORE.INTER.POLAR>
-1.57604

>  <SCORE.INTER.REPUL>
0.0391042

>  <SCORE.INTER.ROT>
32

>  <SCORE.INTER.VDW>
-35.8081

>  <SCORE.INTER.norm>
-0.071423

>  <SCORE.INTRA>
13.0167

>  <SCORE.INTRA.DIHEDRAL>
19.9535

>  <SCORE.INTRA.DIHEDRAL.0>
47.3121

>  <SCORE.INTRA.POLAR>
1.13622

>  <SCORE.INTRA.POLAR.0>
-1.47808

>  <SCORE.INTRA.REPUL>
0

>  <SCORE.INTRA.REPUL.0>
0

>  <SCORE.INTRA.VDW>
-0.823201

>  <SCORE.INTRA.VDW.0>
-2.78316

>  <SCORE.INTRA.norm>
0.260334

>  <SCORE.RESTR>
0

>  <SCORE.RESTR.CAVITY>
0

>  <SCORE.RESTR.norm>
0

>  <SCORE.SYSTEM>
0

>  <SCORE.SYSTEM.CONST>
0

>  <SCORE.SYSTEM.DIHEDRAL>
0

>  <SCORE.SYSTEM.norm>
0

>  <SCORE.heavy>
50

>  <SCORE.norm>
0.188911

$$$$
