FB1.pdb
  RxDock  09132010173D
librxdock.so/0.1.0
 59 58  0  0  0  0  0  0  0  0999 V2000
   -1.4025   -5.0907   13.1676 C   0  0  0  0  0  0
   -1.0460   -4.1879   11.9890 C   0  0  0  0  0  0
   -0.8036   -4.9976   10.7045 C   0  0  0  0  0  0
   -0.3223   -4.1342    9.5118 C   0  0  0  0  0  0
    0.2039   -4.9461    8.2771 C   0  0  0  0  0  0
    0.5040   -3.9500    7.1332 C   0  0  0  0  0  0
    1.4756   -5.8381    8.6011 C   0  0  0  0  0  0
    2.7063   -5.1115    9.3247 C   0  0  0  0  0  0
    4.0590   -5.8226    9.7637 C   0  0  0  0  0  0
    4.9121   -6.5214    8.5368 C   0  0  0  0  0  0
    5.3122   -5.4325    7.5427 C   0  0  0  0  0  0
    6.2027   -7.3559    8.9642 C   0  0  0  0  0  0
    6.1586   -8.6927    9.8751 C   0  0  0  0  0  0
    5.1783   -8.8511   11.0876 C   0  0  0  0  0  0
    5.1828   -7.7231   12.2175 C   0  0  0  0  0  0
    4.3714   -7.8163   13.5694 C   0  0  0  0  0  0
    4.5998   -9.0239   14.5165 C   0  0  0  0  0  0
    6.0933   -9.4918   14.7156 C   0  0  0  0  0  0
    6.6642  -10.4196   13.6360 C   0  0  0  0  0  0
    5.8201  -11.6508   13.2002 C   0  0  0  0  0  0
    6.3951  -12.6868   12.1895 C   0  0  0  0  0  0
    6.4390  -12.2569   10.7298 C   0  0  0  0  0  0
    7.7128  -13.1792   12.6340 N   0  0  0  0  0  0
    5.6038  -12.3998   14.4233 O   0  0  0  0  0  0
    6.9160   -8.3226   14.7920 O   0  0  0  0  0  0
    5.8042   -9.7481    8.9657 O   0  0  0  0  0  0
    3.1328   -4.0478    8.4308 O   0  0  0  0  0  0
    2.7994   -2.7780    8.7797 C   0  0  0  0  0  0
    2.3845   -2.4153    9.8641 O   0  0  0  0  0  0
    3.1251   -1.8669    7.6286 C   0  0  0  0  0  0
    4.1778   -0.8079    7.9934 C   0  0  0  0  0  0
    3.7832    0.0135    9.2274 C   0  0  0  0  0  0
    2.6185    0.9273    8.9244 C   0  0  0  0  0  0
    2.7060    2.1500    8.8927 O   0  0  0  0  0  0
    1.4721    0.2718    8.6901 O   0  0  0  0  0  0
    5.4751   -1.5804    8.2694 C   0  0  0  0  0  0
    6.4472   -1.5369    7.5307 O   0  0  0  0  0  0
    5.4382   -2.3495    9.3662 O   0  0  0  0  0  0
    1.0881   -7.0920    9.2921 O   0  0  0  0  0  0
    0.4264   -8.0676    8.5653 C   0  0  0  0  0  0
    0.8413   -8.5630    7.5257 O   0  0  0  0  0  0
   -0.9060   -8.4726    9.2095 C   0  0  0  0  0  0
   -0.8017   -9.1612   10.6057 C   0  0  0  0  0  0
   -0.6107   -8.2641   11.8423 C   0  0  0  0  0  0
    0.8317   -8.0811   12.2171 C   0  0  0  0  0  0
    1.4238   -7.0122   12.2749 O   0  0  0  0  0  0
    1.4360   -9.2417   12.5140 O   0  0  0  0  0  0
   -1.9440  -10.1339   10.9239 C   0  0  0  0  0  0
   -2.8741  -10.3304   10.1669 O   0  0  0  0  0  0
   -1.7986  -10.8463   12.0608 O   0  0  0  0  0  0
    8.0714  -12.5629   13.3621 H   0  0  0  0  0  0
    8.3746  -13.0855   11.8602 H   0  0  0  0  0  0
    6.4776  -12.7943   14.6288 H   0  0  0  0  0  0
    7.8341   -8.6069   14.9559 H   0  0  0  0  0  0
    6.5475   -9.8799    8.3536 H   0  0  0  0  0  0
    0.7113    0.8354    8.4509 H   0  0  0  0  0  0
    4.6747   -2.1682    9.9686 H   0  0  0  0  0  0
    2.3309   -9.0163   12.8451 H   0  0  0  0  0  0
   -1.0144  -10.6123   12.6054 H   0  0  0  0  0  0
  1  2  1  0  0  0
  2  3  1  0  0  0
  3  4  1  0  0  0
  4  5  1  0  0  0
  5  6  1  0  0  0
  5  7  1  0  0  0
  7  8  1  0  0  0
  7 39  1  0  0  0
  8  9  1  0  0  0
  8 27  1  0  0  0
  9 10  1  0  0  0
 10 11  1  0  0  0
 10 12  1  0  0  0
 12 13  1  0  0  0
 13 14  1  0  0  0
 13 26  1  0  0  0
 14 15  1  0  0  0
 15 16  1  0  0  0
 16 17  1  0  0  0
 17 18  1  0  0  0
 18 19  1  0  0  0
 18 25  1  0  0  0
 19 20  1  0  0  0
 20 21  1  0  0  0
 20 24  1  0  0  0
 21 22  1  0  0  0
 21 23  1  0  0  0
 23 51  1  0  0  0
 23 52  1  0  0  0
 24 53  1  0  0  0
 25 54  1  0  0  0
 26 55  1  0  0  0
 27 28  1  0  0  0
 28 29  2  0  0  0
 28 30  1  0  0  0
 30 31  1  0  0  0
 31 32  1  0  0  0
 31 36  1  0  0  0
 32 33  1  0  0  0
 33 34  2  0  0  0
 33 35  1  0  0  0
 35 56  1  0  0  0
 36 37  2  0  0  0
 36 38  1  0  0  0
 38 57  1  0  0  0
 39 40  1  0  0  0
 40 41  2  0  0  0
 40 42  1  0  0  0
 42 43  1  0  0  0
 43 44  1  0  0  0
 43 48  1  0  0  0
 44 45  1  0  0  0
 45 46  2  0  0  0
 45 47  1  0  0  0
 47 58  1  0  0  0
 48 49  2  0  0  0
 48 50  1  0  0  0
 50 59  1  0  0  0
M  END
>  <AUTHOR>
    GENERATED BY OPEN BABEL 2.4.1

>  <CHROM.1>
-175.12259488,168.50395169,174.27115603,-51.09807278,178.69691018,71.08658586
59.60711743,105.21391358,61.46064173,63.62940796,-38.54683676,-53.73640542
68.09135658,-173.15567845,56.72092663,41.69906461,-82.68212645,-48.36672296
177.44760735,-175.28412297,-75.22565588,-72.10268730,-14.97048446,13.43478646
-118.30773355,-54.55553691,-69.80712930,110.02920524,-112.32903825,-177.30524362
-13.48667456,55.20111634,-64.71579278,80.71899215,-93.54703990,-1.72586710
120.48329045,-173.48406632,5.02519574,2.93106929,-6.52235167,10.44208521
1.76385807,-0.07091744,-0.38447900

>  <COMPND>
    UNNAMED

>  <MASTER>
        0    0    0    0    0    0    0    0  109    0  109    0

>  <Name>
FB1.pdb

>  <RI>
0

>  <Rbt.Current_Directory>
/home/fc/tossine/FB1_39T3/p3/0_clust01

>  <Rbt.Executable>
rbdock/0.1.0

>  <Rbt.Library>
librxdock.so/0.1.0

>  <Rbt.Parameter_File>
/cluster/rxdock/data/scripts/dock.prm

>  <Rbt.Receptor>
rx_0.prm

>  <SCORE>
6.12467

>  <SCORE.INTER>
3.21959

>  <SCORE.INTER.CONST>
1

>  <SCORE.INTER.POLAR>
-2.42303

>  <SCORE.INTER.REPUL>
0.130985

>  <SCORE.INTER.ROT>
32

>  <SCORE.INTER.VDW>
-26.597

>  <SCORE.INTER.norm>
0.0643918

>  <SCORE.INTRA>
2.90218

>  <SCORE.INTRA.DIHEDRAL>
1.67988

>  <SCORE.INTRA.DIHEDRAL.0>
47.3121

>  <SCORE.INTRA.POLAR>
1.44492

>  <SCORE.INTRA.POLAR.0>
-1.47808

>  <SCORE.INTRA.REPUL>
0

>  <SCORE.INTRA.REPUL.0>
0

>  <SCORE.INTRA.VDW>
-2.85049

>  <SCORE.INTRA.VDW.0>
-2.78316

>  <SCORE.INTRA.norm>
0.0580436

>  <SCORE.RESTR>
0.00289669

>  <SCORE.RESTR.CAVITY>
0.00289669

>  <SCORE.RESTR.norm>
5.79338e-05

>  <SCORE.SYSTEM>
0

>  <SCORE.SYSTEM.CONST>
0

>  <SCORE.SYSTEM.DIHEDRAL>
0

>  <SCORE.SYSTEM.norm>
0

>  <SCORE.heavy>
50

>  <SCORE.norm>
0.122493

$$$$
