FB1.pdb
  RxDock  10072000323D
librxdock.so/0.1.0
 59 58  0  0  0  0  0  0  0  0999 V2000
    2.8097   -6.6589    6.9050 C   0  0  0  0  0  0
    3.3749   -5.5136    6.0682 C   0  0  0  0  0  0
    4.8381   -5.7677    5.6698 C   0  0  0  0  0  0
    5.7540   -4.5333    5.8628 C   0  0  0  0  0  0
    6.3569   -4.3754    7.3023 C   0  0  0  0  0  0
    7.3261   -3.1709    7.2933 C   0  0  0  0  0  0
    5.2576   -4.2108    8.4347 C   0  0  0  0  0  0
    4.0573   -3.1921    8.1384 C   0  0  0  0  0  0
    3.4475   -2.1661    9.1889 C   0  0  0  0  0  0
    1.8222   -2.3016    9.4365 C   0  0  0  0  0  0
    1.4447   -1.4572   10.6525 C   0  0  0  0  0  0
    0.8882   -1.9114    8.2035 C   0  0  0  0  0  0
   -0.0313   -2.9669    7.3917 C   0  0  0  0  0  0
   -0.9419   -4.0177    8.1147 C   0  0  0  0  0  0
   -0.2478   -5.0886    9.0741 C   0  0  0  0  0  0
   -0.9472   -6.4095    9.5845 C   0  0  0  0  0  0
   -0.0834   -7.5467   10.1911 C   0  0  0  0  0  0
   -0.7309   -8.9851   10.2213 C   0  0  0  0  0  0
   -1.7962   -9.2282   11.2976 C   0  0  0  0  0  0
   -2.3268  -10.6764   11.4962 C   0  0  0  0  0  0
   -2.7290  -11.5471   10.2691 C   0  0  0  0  0  0
   -3.1379  -12.9837   10.5627 C   0  0  0  0  0  0
   -3.7506  -10.8644    9.4526 N   0  0  0  0  0  0
   -1.2268  -11.3889   12.1177 O   0  0  0  0  0  0
   -1.3158   -9.2332    8.9383 O   0  0  0  0  0  0
   -0.9338   -2.1550    6.6217 O   0  0  0  0  0  0
    4.4969   -2.3567    7.0332 O   0  0  0  0  0  0
    3.5379   -1.8969    6.1881 C   0  0  0  0  0  0
    2.8861   -2.5648    5.4079 O   0  0  0  0  0  0
    3.3392   -0.4290    6.4471 C   0  0  0  0  0  0
    4.4867    0.4292    5.8911 C   0  0  0  0  0  0
    4.3101    1.9210    6.2020 C   0  0  0  0  0  0
    4.1902    2.7319    4.9326 C   0  0  0  0  0  0
    4.8360    3.7515    4.7155 O   0  0  0  0  0  0
    3.3067    2.2282    4.0582 O   0  0  0  0  0  0
    5.7670   -0.0975    6.5540 C   0  0  0  0  0  0
    6.6736   -0.6253    5.9280 O   0  0  0  0  0  0
    5.7890    0.0241    7.8885 O   0  0  0  0  0  0
    4.7630   -5.5306    8.8968 O   0  0  0  0  0  0
    3.9394   -5.5731   10.0094 C   0  0  0  0  0  0
    3.2142   -4.6570   10.3744 O   0  0  0  0  0  0
    4.0302   -6.9127   10.7521 C   0  0  0  0  0  0
    5.4239   -7.6134   10.7175 C   0  0  0  0  0  0
    5.5497   -9.0059   11.3619 C   0  0  0  0  0  0
    5.0165   -9.0534   12.7648 C   0  0  0  0  0  0
    5.2547   -8.2394   13.6465 O   0  0  0  0  0  0
    4.2058  -10.1025   12.9704 O   0  0  0  0  0  0
    6.0596   -7.6999    9.3244 C   0  0  0  0  0  0
    5.4356   -8.0224    8.3327 O   0  0  0  0  0  0
    7.3427   -7.2891    9.2465 O   0  0  0  0  0  0
   -4.0826  -11.5026    8.7309 H   0  0  0  0  0  0
   -3.3033  -10.0995    8.9424 H   0  0  0  0  0  0
   -1.6483  -12.1551   12.5611 H   0  0  0  0  0  0
   -2.0140   -8.5694    8.7888 H   0  0  0  0  0  0
   -1.5281   -1.6972    7.2396 H   0  0  0  0  0  0
    2.9596    2.8642    3.4035 H   0  0  0  0  0  0
    6.6159   -0.3097    8.3170 H   0  0  0  0  0  0
    3.8951  -10.0403   13.8983 H   0  0  0  0  0  0
    7.7689   -7.0783   10.1068 H   0  0  0  0  0  0
  1  2  1  0  0  0
  2  3  1  0  0  0
  3  4  1  0  0  0
  4  5  1  0  0  0
  5  6  1  0  0  0
  5  7  1  0  0  0
  7  8  1  0  0  0
  7 39  1  0  0  0
  8  9  1  0  0  0
  8 27  1  0  0  0
  9 10  1  0  0  0
 10 11  1  0  0  0
 10 12  1  0  0  0
 12 13  1  0  0  0
 13 14  1  0  0  0
 13 26  1  0  0  0
 14 15  1  0  0  0
 15 16  1  0  0  0
 16 17  1  0  0  0
 17 18  1  0  0  0
 18 19  1  0  0  0
 18 25  1  0  0  0
 19 20  1  0  0  0
 20 21  1  0  0  0
 20 24  1  0  0  0
 21 22  1  0  0  0
 21 23  1  0  0  0
 23 51  1  0  0  0
 23 52  1  0  0  0
 24 53  1  0  0  0
 25 54  1  0  0  0
 26 55  1  0  0  0
 27 28  1  0  0  0
 28 29  2  0  0  0
 28 30  1  0  0  0
 30 31  1  0  0  0
 31 32  1  0  0  0
 31 36  1  0  0  0
 32 33  1  0  0  0
 33 34  2  0  0  0
 33 35  1  0  0  0
 35 56  1  0  0  0
 36 37  2  0  0  0
 36 38  1  0  0  0
 38 57  1  0  0  0
 39 40  1  0  0  0
 40 41  2  0  0  0
 40 42  1  0  0  0
 42 43  1  0  0  0
 43 44  1  0  0  0
 43 48  1  0  0  0
 44 45  1  0  0  0
 45 46  2  0  0  0
 45 47  1  0  0  0
 47 58  1  0  0  0
 48 49  2  0  0  0
 48 50  1  0  0  0
 50 59  1  0  0  0
M  END
>  <AUTHOR>
    GENERATED BY OPEN BABEL 2.4.1

>  <CHROM.1>
-134.83306227,86.08768903,175.56188751,-45.34541139,-138.19331687,171.10297528
-123.99970626,148.88036329,168.87140237,113.04992814,46.50035385,-60.55912896
-67.06141366,-164.19496944,163.95213422,-159.71868207,-75.97816244,-171.90375454
-61.87338959,-46.09584622,175.61982885,158.05093446,-172.64635022,-68.90817343
74.46626920,-177.82673274,-118.11714023,115.61251148,-131.27018965,158.33635765
-179.63064292,26.69424919,32.77849771,-175.84449720,-51.37477284,-44.21219446
-46.77735395,-178.86075000,6.93360267,2.80434998,-4.91807203,8.56429036,-1.97025840
-0.10090408,-0.48572181

>  <COMPND>
    UNNAMED

>  <MASTER>
        0    0    0    0    0    0    0    0  109    0  109    0

>  <Name>
FB1.pdb

>  <RI>
0

>  <Rbt.Current_Directory>
/cluster/tossine/FB1_39T3/p3/0_clust01

>  <Rbt.Executable>
rbdock/0.1.0

>  <Rbt.Library>
librxdock.so/0.1.0

>  <Rbt.Parameter_File>
/cluster/rxdock/data/scripts/dock.prm

>  <Rbt.Receptor>
rx_3.prm

>  <SCORE>
14.7755

>  <SCORE.INTER>
-2.29561

>  <SCORE.INTER.CONST>
1

>  <SCORE.INTER.POLAR>
-3.04227

>  <SCORE.INTER.REPUL>
0.272556

>  <SCORE.INTER.ROT>
32

>  <SCORE.INTER.VDW>
-30.7147

>  <SCORE.INTER.norm>
-0.0459121

>  <SCORE.INTRA>
16.9848

>  <SCORE.INTRA.DIHEDRAL>
37.3079

>  <SCORE.INTRA.DIHEDRAL.0>
47.3121

>  <SCORE.INTRA.POLAR>
1.14772

>  <SCORE.INTRA.POLAR.0>
-1.47808

>  <SCORE.INTRA.REPUL>
0

>  <SCORE.INTRA.REPUL.0>
0

>  <SCORE.INTRA.VDW>
-5.57138

>  <SCORE.INTRA.VDW.0>
-2.78316

>  <SCORE.INTRA.norm>
0.339696

>  <SCORE.RESTR>
0.0863285

>  <SCORE.RESTR.CAVITY>
0.0863285

>  <SCORE.RESTR.norm>
0.00172657

>  <SCORE.SYSTEM>
0

>  <SCORE.SYSTEM.CONST>
0

>  <SCORE.SYSTEM.DIHEDRAL>
0

>  <SCORE.SYSTEM.norm>
0

>  <SCORE.heavy>
50

>  <SCORE.norm>
0.29551

$$$$
