FB1.pdb
  RxDock  10072001113D
librxdock.so/0.1.0
 59 58  0  0  0  0  0  0  0  0999 V2000
    4.4157   -8.5174   13.5706 C   0  0  0  0  0  0
    3.3143   -8.1602   12.5753 C   0  0  0  0  0  0
    3.6381   -6.8680   11.8074 C   0  0  0  0  0  0
    2.6725   -6.5922   10.6278 C   0  0  0  0  0  0
    2.8556   -7.5360    9.3884 C   0  0  0  0  0  0
    2.1880   -8.8933    9.7090 C   0  0  0  0  0  0
    2.2843   -6.9273    8.0390 C   0  0  0  0  0  0
    1.0364   -5.9306    8.1636 C   0  0  0  0  0  0
    0.5477   -4.9300    7.0287 C   0  0  0  0  0  0
    1.7165   -3.9372    6.4208 C   0  0  0  0  0  0
    1.2025   -3.3225    5.1200 C   0  0  0  0  0  0
    2.2317   -2.7810    7.3917 C   0  0  0  0  0  0
    1.2571   -1.8052    8.2382 C   0  0  0  0  0  0
    1.5531   -1.4056    9.7244 C   0  0  0  0  0  0
    1.8933    0.1211   10.0448 C   0  0  0  0  0  0
    3.1374    0.8966    9.4570 C   0  0  0  0  0  0
    3.1011    2.4452    9.3689 C   0  0  0  0  0  0
    1.9244    3.0767    8.5287 C   0  0  0  0  0  0
    1.9647    4.5983    8.3402 C   0  0  0  0  0  0
    1.8921    5.5002    9.6050 C   0  0  0  0  0  0
    2.8219    5.2292   10.8246 C   0  0  0  0  0  0
    4.3116    5.1218   10.5302 C   0  0  0  0  0  0
    2.5667    6.1998   11.9059 N   0  0  0  0  0  0
    2.2634    6.8216    9.1361 O   0  0  0  0  0  0
    1.9223    2.4584    7.2375 O   0  0  0  0  0  0
    1.2523   -0.5656    7.5102 O   0  0  0  0  0  0
   -0.1238   -6.7638    8.4327 O   0  0  0  0  0  0
   -0.5287   -6.8585    9.7259 C   0  0  0  0  0  0
   -0.1630   -6.1541   10.6476 O   0  0  0  0  0  0
   -1.5893   -7.9207    9.8160 C   0  0  0  0  0  0
   -1.0253   -9.2827   10.2510 C   0  0  0  0  0  0
   -0.4239   -9.2474   11.6618 C   0  0  0  0  0  0
    0.3602  -10.5061   11.9518 C   0  0  0  0  0  0
    1.5854  -10.5512   11.9776 O   0  0  0  0  0  0
   -0.4140  -11.5769   12.1818 O   0  0  0  0  0  0
   -2.2068  -10.2617   10.2080 C   0  0  0  0  0  0
   -2.6153  -10.8576   11.1931 O   0  0  0  0  0  0
   -2.7257  -10.4489    8.9867 O   0  0  0  0  0  0
    3.3709   -6.3538    7.2081 O   0  0  0  0  0  0
    4.2338   -5.4404    7.7904 C   0  0  0  0  0  0
    4.1669   -5.0625    8.9528 O   0  0  0  0  0  0
    5.3036   -4.9411    6.8104 C   0  0  0  0  0  0
    5.9711   -3.5782    7.1729 C   0  0  0  0  0  0
    7.4570   -3.5851    7.5762 C   0  0  0  0  0  0
    8.2935   -4.4898    6.7181 C   0  0  0  0  0  0
    8.8780   -4.1626    5.6945 O   0  0  0  0  0  0
    8.3619   -5.7387    7.2037 O   0  0  0  0  0  0
    5.7935   -2.4804    6.1167 C   0  0  0  0  0  0
    6.5607   -1.5450    6.0012 O   0  0  0  0  0  0
    4.7823   -2.6739    5.2442 O   0  0  0  0  0  0
    3.2648    6.0756   12.6379 H   0  0  0  0  0  0
    1.6754    5.9674   12.3498 H   0  0  0  0  0  0
    3.1891    6.7229    8.8282 H   0  0  0  0  0  0
    1.6516    1.5281    7.3461 H   0  0  0  0  0  0
    0.8462   -0.7281    6.6424 H   0  0  0  0  0  0
   -1.3749  -11.4032   12.1851 H   0  0  0  0  0  0
   -3.4841  -11.0834    8.9563 H   0  0  0  0  0  0
    7.8450   -5.7453    8.0368 H   0  0  0  0  0  0
    4.1726   -3.4124    5.4656 H   0  0  0  0  0  0
  1  2  1  0  0  0
  2  3  1  0  0  0
  3  4  1  0  0  0
  4  5  1  0  0  0
  5  6  1  0  0  0
  5  7  1  0  0  0
  7  8  1  0  0  0
  7 39  1  0  0  0
  8  9  1  0  0  0
  8 27  1  0  0  0
  9 10  1  0  0  0
 10 11  1  0  0  0
 10 12  1  0  0  0
 12 13  1  0  0  0
 13 14  1  0  0  0
 13 26  1  0  0  0
 14 15  1  0  0  0
 15 16  1  0  0  0
 16 17  1  0  0  0
 17 18  1  0  0  0
 18 19  1  0  0  0
 18 25  1  0  0  0
 19 20  1  0  0  0
 20 21  1  0  0  0
 20 24  1  0  0  0
 21 22  1  0  0  0
 21 23  1  0  0  0
 23 51  1  0  0  0
 23 52  1  0  0  0
 24 53  1  0  0  0
 25 54  1  0  0  0
 26 55  1  0  0  0
 27 28  1  0  0  0
 28 29  2  0  0  0
 28 30  1  0  0  0
 30 31  1  0  0  0
 31 32  1  0  0  0
 31 36  1  0  0  0
 32 33  1  0  0  0
 33 34  2  0  0  0
 33 35  1  0  0  0
 35 56  1  0  0  0
 36 37  2  0  0  0
 36 38  1  0  0  0
 38 57  1  0  0  0
 39 40  1  0  0  0
 40 41  2  0  0  0
 40 42  1  0  0  0
 42 43  1  0  0  0
 43 44  1  0  0  0
 43 48  1  0  0  0
 44 45  1  0  0  0
 45 46  2  0  0  0
 45 47  1  0  0  0
 47 58  1  0  0  0
 48 49  2  0  0  0
 48 50  1  0  0  0
 50 59  1  0  0  0
M  END
>  <AUTHOR>
    GENERATED BY OPEN BABEL 2.4.1

>  <CHROM.1>
170.41152600,-72.16779985,78.10281716,-30.05525989,163.31459273,-52.38110526
-52.56760945,99.14383181,165.04190043,-47.31825873,138.35699616,113.72072197
64.48560952,-61.62615249,156.71329530,-57.94084396,-174.70215370,-61.53752704
68.55112272,49.33361080,52.45387804,-63.23824109,-172.84311796,12.91627180
96.57302163,63.15332100,-168.66269000,-118.76820488,105.72875445,-3.36511190
179.68098611,-0.14425342,158.50692247,112.18140780,41.95757814,-155.43419090
90.99124853,-1.13936585,9.97506777,2.46493488,-3.90409139,8.99113903,-1.81902233
0.48553885,-0.01520768

>  <COMPND>
    UNNAMED

>  <MASTER>
        0    0    0    0    0    0    0    0  109    0  109    0

>  <Name>
FB1.pdb

>  <RI>
0

>  <Rbt.Current_Directory>
/cluster/tossine/FB1_39T3/p3/0_clust01

>  <Rbt.Executable>
rbdock/0.1.0

>  <Rbt.Library>
librxdock.so/0.1.0

>  <Rbt.Parameter_File>
/cluster/rxdock/data/scripts/dock.prm

>  <Rbt.Receptor>
rx_4.prm

>  <SCORE>
20.0375

>  <SCORE.INTER>
15.8139

>  <SCORE.INTER.CONST>
1

>  <SCORE.INTER.POLAR>
-0.600677

>  <SCORE.INTER.REPUL>
0.268789

>  <SCORE.INTER.ROT>
32

>  <SCORE.INTER.VDW>
-20.8877

>  <SCORE.INTER.norm>
0.316278

>  <SCORE.INTRA>
3.14364

>  <SCORE.INTRA.DIHEDRAL>
-1.4827

>  <SCORE.INTRA.DIHEDRAL.0>
47.3121

>  <SCORE.INTRA.POLAR>
0.0284506

>  <SCORE.INTRA.POLAR.0>
-1.47808

>  <SCORE.INTRA.REPUL>
0

>  <SCORE.INTRA.REPUL.0>
0

>  <SCORE.INTRA.VDW>
3.78826

>  <SCORE.INTRA.VDW.0>
-2.78316

>  <SCORE.INTRA.norm>
0.0628728

>  <SCORE.RESTR>
1.07996

>  <SCORE.RESTR.CAVITY>
1.07996

>  <SCORE.RESTR.norm>
0.0215993

>  <SCORE.SYSTEM>
0

>  <SCORE.SYSTEM.CONST>
0

>  <SCORE.SYSTEM.DIHEDRAL>
0

>  <SCORE.SYSTEM.norm>
0

>  <SCORE.heavy>
50

>  <SCORE.norm>
0.40075

$$$$
