FB1.pdb
  RxDock  10062023563D
librxdock.so/0.1.0
 59 58  0  0  0  0  0  0  0  0999 V2000
    4.1668    1.3379    5.0320 C   0  0  0  0  0  0
    4.1421    1.4473    6.5548 C   0  0  0  0  0  0
    4.8625    0.2642    7.2223 C   0  0  0  0  0  0
    4.0517   -1.0551    7.1815 C   0  0  0  0  0  0
    4.6087   -2.1438    6.1992 C   0  0  0  0  0  0
    5.9746   -2.6296    6.7369 C   0  0  0  0  0  0
    3.6188   -3.3644    5.9795 C   0  0  0  0  0  0
    4.0922   -4.5087    4.9633 C   0  0  0  0  0  0
    3.7757   -6.0591    5.1194 C   0  0  0  0  0  0
    4.8715   -6.9103    6.0116 C   0  0  0  0  0  0
    6.2362   -6.8051    5.3328 C   0  0  0  0  0  0
    5.0038   -6.4943    7.5460 C   0  0  0  0  0  0
    5.7246   -7.4035    8.6740 C   0  0  0  0  0  0
    4.9561   -7.9614    9.9207 C   0  0  0  0  0  0
    4.3746   -6.9187   10.9808 C   0  0  0  0  0  0
    3.3554   -7.2927   12.1279 C   0  0  0  0  0  0
    1.8945   -7.6654   11.7612 C   0  0  0  0  0  0
    1.1773   -6.7458   10.6986 C   0  0  0  0  0  0
    0.3689   -7.4661    9.6122 C   0  0  0  0  0  0
   -1.0166   -8.0592    9.9955 C   0  0  0  0  0  0
   -1.1901   -8.8817   11.3065 C   0  0  0  0  0  0
   -0.3105  -10.1155   11.4537 C   0  0  0  0  0  0
   -1.0791   -8.0106   12.4920 N   0  0  0  0  0  0
   -1.8782   -6.9041   10.1602 O   0  0  0  0  0  0
    0.3028   -5.8571   11.4022 O   0  0  0  0  0  0
    6.1904   -8.5666    7.9690 O   0  0  0  0  0  0
    3.5362   -4.1567    3.6673 O   0  0  0  0  0  0
    4.4076   -4.0500    2.6307 C   0  0  0  0  0  0
    5.4387   -4.6796    2.4899 O   0  0  0  0  0  0
    3.8349   -3.0904    1.6244 C   0  0  0  0  0  0
    2.5645   -3.6315    0.9492 C   0  0  0  0  0  0
    2.7121   -5.0914    0.5014 C   0  0  0  0  0  0
    2.2039   -5.2830   -0.9087 C   0  0  0  0  0  0
    2.8630   -5.8032   -1.8023 O   0  0  0  0  0  0
    0.9552   -4.8295   -1.0929 O   0  0  0  0  0  0
    1.4477   -3.5134    1.9956 C   0  0  0  0  0  0
    1.5831   -2.9125    3.0506 O   0  0  0  0  0  0
    0.3219   -4.1678    1.6791 O   0  0  0  0  0  0
    3.1658   -3.9264    7.2751 O   0  0  0  0  0  0
    1.8384   -4.2998    7.4035 C   0  0  0  0  0  0
    1.4365   -5.2079    8.1192 O   0  0  0  0  0  0
    0.9043   -3.4415    6.5403 C   0  0  0  0  0  0
   -0.0792   -2.5155    7.3212 C   0  0  0  0  0  0
   -1.4808   -3.0618    7.6489 C   0  0  0  0  0  0
   -1.4455   -4.4121    8.3045 C   0  0  0  0  0  0
   -1.3603   -5.4854    7.7236 O   0  0  0  0  0  0
   -1.4992   -4.3343    9.6430 O   0  0  0  0  0  0
    0.4922   -1.9273    8.6173 C   0  0  0  0  0  0
    0.5266   -2.5445    9.6635 O   0  0  0  0  0  0
    1.0579   -0.7077    8.5000 O   0  0  0  0  0  0
   -0.6292   -8.5281   13.2459 H   0  0  0  0  0  0
   -2.0198   -7.8070   12.8370 H   0  0  0  0  0  0
   -2.7856   -7.2747   10.1848 H   0  0  0  0  0  0
    0.0487   -5.1371   10.7959 H   0  0  0  0  0  0
    7.1273   -8.6978    8.1913 H   0  0  0  0  0  0
    0.5959   -4.9523   -1.9925 H   0  0  0  0  0  0
    0.3441   -4.6204    0.7997 H   0  0  0  0  0  0
   -1.6590   -5.2442    9.9714 H   0  0  0  0  0  0
    0.7502   -0.0380    9.1504 H   0  0  0  0  0  0
  1  2  1  0  0  0
  2  3  1  0  0  0
  3  4  1  0  0  0
  4  5  1  0  0  0
  5  6  1  0  0  0
  5  7  1  0  0  0
  7  8  1  0  0  0
  7 39  1  0  0  0
  8  9  1  0  0  0
  8 27  1  0  0  0
  9 10  1  0  0  0
 10 11  1  0  0  0
 10 12  1  0  0  0
 12 13  1  0  0  0
 13 14  1  0  0  0
 13 26  1  0  0  0
 14 15  1  0  0  0
 15 16  1  0  0  0
 16 17  1  0  0  0
 17 18  1  0  0  0
 18 19  1  0  0  0
 18 25  1  0  0  0
 19 20  1  0  0  0
 20 21  1  0  0  0
 20 24  1  0  0  0
 21 22  1  0  0  0
 21 23  1  0  0  0
 23 51  1  0  0  0
 23 52  1  0  0  0
 24 53  1  0  0  0
 25 54  1  0  0  0
 26 55  1  0  0  0
 27 28  1  0  0  0
 28 29  2  0  0  0
 28 30  1  0  0  0
 30 31  1  0  0  0
 31 32  1  0  0  0
 31 36  1  0  0  0
 32 33  1  0  0  0
 33 34  2  0  0  0
 33 35  1  0  0  0
 35 56  1  0  0  0
 36 37  2  0  0  0
 36 38  1  0  0  0
 38 57  1  0  0  0
 39 40  1  0  0  0
 40 41  2  0  0  0
 40 42  1  0  0  0
 42 43  1  0  0  0
 43 44  1  0  0  0
 43 48  1  0  0  0
 44 45  1  0  0  0
 45 46  2  0  0  0
 45 47  1  0  0  0
 47 58  1  0  0  0
 48 49  2  0  0  0
 48 50  1  0  0  0
 50 59  1  0  0  0
M  END
>  <AUTHOR>
    GENERATED BY OPEN BABEL 2.4.1

>  <CHROM.1>
-74.58699681,108.24971419,66.99685853,178.61114427,145.36196989,139.18258939
-88.27941437,124.99089321,-60.47920471,164.35273691,-118.26935530,-64.44145558
129.55710013,167.90206676,-69.82001749,-44.59780561,136.15866251,75.82430008
164.64687509,-45.60852304,-58.06744497,166.69788646,-145.21634077,31.12671021
-66.85934782,-45.66341457,-133.61225198,9.67264774,127.09134490,-179.14385253
-1.76578384,149.21866798,-112.98596932,-92.30360692,50.80537125,-81.39228503
-83.77769422,168.48624383,129.60163503,2.23722498,-4.77031120,6.69430943
0.78771565,1.19124863,-0.46111955

>  <COMPND>
    UNNAMED

>  <MASTER>
        0    0    0    0    0    0    0    0  109    0  109    0

>  <Name>
FB1.pdb

>  <RI>
0

>  <Rbt.Current_Directory>
/cluster/tossine/FB1_39T3/p3/0_clust01

>  <Rbt.Executable>
rbdock/0.1.0

>  <Rbt.Library>
librxdock.so/0.1.0

>  <Rbt.Parameter_File>
/cluster/rxdock/data/scripts/dock.prm

>  <Rbt.Receptor>
rx_2.prm

>  <SCORE>
24.6521

>  <SCORE.INTER>
5.95483

>  <SCORE.INTER.CONST>
1

>  <SCORE.INTER.POLAR>
-1.39849

>  <SCORE.INTER.REPUL>
0.978567

>  <SCORE.INTER.ROT>
32

>  <SCORE.INTER.VDW>
-31.5832

>  <SCORE.INTER.norm>
0.119097

>  <SCORE.INTRA>
18.6761

>  <SCORE.INTRA.DIHEDRAL>
49.8745

>  <SCORE.INTRA.DIHEDRAL.0>
47.3121

>  <SCORE.INTRA.POLAR>
-0.98182

>  <SCORE.INTRA.POLAR.0>
-1.47808

>  <SCORE.INTRA.REPUL>
0

>  <SCORE.INTRA.REPUL.0>
0

>  <SCORE.INTRA.VDW>
-2.92297

>  <SCORE.INTRA.VDW.0>
-2.78316

>  <SCORE.INTRA.norm>
0.373522

>  <SCORE.RESTR>
0.0211836

>  <SCORE.RESTR.CAVITY>
0.0211836

>  <SCORE.RESTR.norm>
0.000423673

>  <SCORE.SYSTEM>
0

>  <SCORE.SYSTEM.CONST>
0

>  <SCORE.SYSTEM.DIHEDRAL>
0

>  <SCORE.SYSTEM.norm>
0

>  <SCORE.heavy>
50

>  <SCORE.norm>
0.493042

$$$$
