FB1.pdb
  RxDock  10062023503D
librxdock.so/0.1.0
 59 58  0  0  0  0  0  0  0  0999 V2000
    4.1733   -6.5205   10.4622 C   0  0  0  0  0  0
    5.2713   -7.0738    9.5568 C   0  0  0  0  0  0
    5.3353   -6.3240    8.2159 C   0  0  0  0  0  0
    5.8605   -4.8724    8.3446 C   0  0  0  0  0  0
    4.8091   -3.8322    8.8671 C   0  0  0  0  0  0
    5.5726   -2.6478    9.5033 C   0  0  0  0  0  0
    3.8083   -3.3252    7.7450 C   0  0  0  0  0  0
    2.9160   -4.4359    7.0127 C   0  0  0  0  0  0
    3.4413   -5.4455    5.9022 C   0  0  0  0  0  0
    4.1634   -4.7376    4.5988 C   0  0  0  0  0  0
    4.1244   -5.7203    3.4296 C   0  0  0  0  0  0
    3.5618   -3.3339    4.1379 C   0  0  0  0  0  0
    2.0939   -3.1465    3.4832 C   0  0  0  0  0  0
    1.7065   -3.7677    2.0975 C   0  0  0  0  0  0
    2.8037   -3.7755    0.9377 C   0  0  0  0  0  0
    2.5408   -4.2937   -0.5309 C   0  0  0  0  0  0
    3.5974   -4.0289   -1.6359 C   0  0  0  0  0  0
    3.9921   -2.5223   -1.8881 C   0  0  0  0  0  0
    5.4216   -2.1209   -1.5034 C   0  0  0  0  0  0
    6.6016   -2.9537   -2.0798 C   0  0  0  0  0  0
    7.0374   -2.7857   -3.5654 C   0  0  0  0  0  0
    6.7062   -1.4528   -4.2221 C   0  0  0  0  0  0
    8.4650   -3.1167   -3.7350 N   0  0  0  0  0  0
    7.7551   -2.5443   -1.3015 O   0  0  0  0  0  0
    3.7997   -2.2422   -3.2788 O   0  0  0  0  0  0
    1.1890   -3.7428    4.4278 O   0  0  0  0  0  0
    2.3947   -5.2953    8.0625 O   0  0  0  0  0  0
    1.2204   -5.9310    7.8131 C   0  0  0  0  0  0
    0.5418   -5.8209    6.8097 O   0  0  0  0  0  0
    0.9426   -6.8798    8.9463 C   0  0  0  0  0  0
   -0.0538   -6.3057    9.9661 C   0  0  0  0  0  0
    0.4207   -4.9775   10.5693 C   0  0  0  0  0  0
   -0.4232   -4.5874   11.7605 C   0  0  0  0  0  0
   -1.0774   -3.5518   11.8184 O   0  0  0  0  0  0
   -0.3915   -5.4865   12.7552 O   0  0  0  0  0  0
   -1.3672   -6.0953    9.2001 C   0  0  0  0  0  0
   -2.2901   -6.8954    9.2261 O   0  0  0  0  0  0
   -1.4014   -4.9807    8.4567 O   0  0  0  0  0  0
    2.9890   -2.1887    8.2320 O   0  0  0  0  0  0
    2.2386   -1.4754    7.3122 C   0  0  0  0  0  0
    2.1011   -1.7849    6.1359 O   0  0  0  0  0  0
    1.5836   -0.2334    7.9308 C   0  0  0  0  0  0
    1.9932    0.0868    9.4019 C   0  0  0  0  0  0
    2.1135    1.5654    9.8138 C   0  0  0  0  0  0
    3.1576    2.3090    9.0319 C   0  0  0  0  0  0
    4.3446    2.3842    9.3183 O   0  0  0  0  0  0
    2.6563    2.8941    7.9334 O   0  0  0  0  0  0
    1.1404   -0.6124   10.4678 C   0  0  0  0  0  0
    0.0290   -1.0489   10.2423 O   0  0  0  0  0  0
    1.7472   -0.8107   11.6568 O   0  0  0  0  0  0
    8.7306   -2.9626   -4.7067 H   0  0  0  0  0  0
    8.5877   -4.1206   -3.5844 H   0  0  0  0  0  0
    7.9724   -1.6483   -1.6353 H   0  0  0  0  0  0
    4.1117   -1.3349   -3.4524 H   0  0  0  0  0  0
    1.3462   -4.7018    4.4306 H   0  0  0  0  0  0
    0.1278   -6.2928   12.5716 H   0  0  0  0  0  0
   -2.2139   -4.8835    7.9006 H   0  0  0  0  0  0
    1.6802    2.8724    8.0237 H   0  0  0  0  0  0
    1.2515   -1.3734   12.2923 H   0  0  0  0  0  0
  1  2  1  0  0  0
  2  3  1  0  0  0
  3  4  1  0  0  0
  4  5  1  0  0  0
  5  6  1  0  0  0
  5  7  1  0  0  0
  7  8  1  0  0  0
  7 39  1  0  0  0
  8  9  1  0  0  0
  8 27  1  0  0  0
  9 10  1  0  0  0
 10 11  1  0  0  0
 10 12  1  0  0  0
 12 13  1  0  0  0
 13 14  1  0  0  0
 13 26  1  0  0  0
 14 15  1  0  0  0
 15 16  1  0  0  0
 16 17  1  0  0  0
 17 18  1  0  0  0
 18 19  1  0  0  0
 18 25  1  0  0  0
 19 20  1  0  0  0
 20 21  1  0  0  0
 20 24  1  0  0  0
 21 22  1  0  0  0
 21 23  1  0  0  0
 23 51  1  0  0  0
 23 52  1  0  0  0
 24 53  1  0  0  0
 25 54  1  0  0  0
 26 55  1  0  0  0
 27 28  1  0  0  0
 28 29  2  0  0  0
 28 30  1  0  0  0
 30 31  1  0  0  0
 31 32  1  0  0  0
 31 36  1  0  0  0
 32 33  1  0  0  0
 33 34  2  0  0  0
 33 35  1  0  0  0
 35 56  1  0  0  0
 36 37  2  0  0  0
 36 38  1  0  0  0
 38 57  1  0  0  0
 39 40  1  0  0  0
 40 41  2  0  0  0
 40 42  1  0  0  0
 42 43  1  0  0  0
 43 44  1  0  0  0
 43 48  1  0  0  0
 44 45  1  0  0  0
 45 46  2  0  0  0
 45 47  1  0  0  0
 47 58  1  0  0  0
 48 49  2  0  0  0
 48 50  1  0  0  0
 50 59  1  0  0  0
M  END
>  <AUTHOR>
    GENERATED BY OPEN BABEL 2.4.1

>  <CHROM.1>
69.91095404,-78.68234367,156.10096970,59.12666828,-75.86701348,168.67344553
-55.06421599,153.11446076,-158.63536653,-68.29121429,-64.50374693,-38.16090960
-68.16917282,-176.58774182,169.45617595,-56.74987717,112.17475281,53.24689352
-175.41380352,75.39879391,24.77640804,-73.95235595,-177.77101801,-2.26411709
99.35094793,-57.78940956,-168.21082585,97.79588156,-119.72338355,-3.02286789
174.85847942,7.00932225,6.36843769,144.56529637,-61.29660446,-20.59766668
-87.66917724,13.43422209,-171.34247181,2.81727462,-3.31116839,5.94495950
2.55981017,1.14382401,0.68419403

>  <COMPND>
    UNNAMED

>  <MASTER>
        0    0    0    0    0    0    0    0  109    0  109    0

>  <Name>
FB1.pdb

>  <RI>
0

>  <Rbt.Current_Directory>
/cluster/tossine/FB1_39T3/p3/0_clust01

>  <Rbt.Executable>
rbdock/0.1.0

>  <Rbt.Library>
librxdock.so/0.1.0

>  <Rbt.Parameter_File>
/cluster/rxdock/data/scripts/dock.prm

>  <Rbt.Receptor>
rx_2.prm

>  <SCORE>
2.62247

>  <SCORE.INTER>
0.292259

>  <SCORE.INTER.CONST>
1

>  <SCORE.INTER.POLAR>
-3.07667

>  <SCORE.INTER.REPUL>
1.07097

>  <SCORE.INTER.ROT>
32

>  <SCORE.INTER.VDW>
-32.0019

>  <SCORE.INTER.norm>
0.00584517

>  <SCORE.INTRA>
2.29905

>  <SCORE.INTRA.DIHEDRAL>
-4.2689

>  <SCORE.INTRA.DIHEDRAL.0>
47.3121

>  <SCORE.INTRA.POLAR>
1.47808

>  <SCORE.INTRA.POLAR.0>
-1.47808

>  <SCORE.INTRA.REPUL>
0

>  <SCORE.INTRA.REPUL.0>
0

>  <SCORE.INTRA.VDW>
-0.591966

>  <SCORE.INTRA.VDW.0>
-2.78316

>  <SCORE.INTRA.norm>
0.0459809

>  <SCORE.RESTR>
0.0311614

>  <SCORE.RESTR.CAVITY>
0.0311614

>  <SCORE.RESTR.norm>
0.000623227

>  <SCORE.SYSTEM>
0

>  <SCORE.SYSTEM.CONST>
0

>  <SCORE.SYSTEM.DIHEDRAL>
0

>  <SCORE.SYSTEM.norm>
0

>  <SCORE.heavy>
50

>  <SCORE.norm>
0.0524493

$$$$
