FB1.pdb
  RxDock  10062023573D
librxdock.so/0.1.0
 59 58  0  0  0  0  0  0  0  0999 V2000
    8.3752    5.4597    4.0758 C   0  0  0  0  0  0
    6.8957    5.1455    4.2846 C   0  0  0  0  0  0
    6.3146    4.3365    3.1133 C   0  0  0  0  0  0
    4.9398    3.6953    3.4275 C   0  0  0  0  0  0
    4.9843    2.4969    4.4385 C   0  0  0  0  0  0
    3.5949    2.3722    5.1052 C   0  0  0  0  0  0
    5.4201    1.1235    3.7738 C   0  0  0  0  0  0
    5.2191   -0.2026    4.6497 C   0  0  0  0  0  0
    5.8745   -0.4665    6.0742 C   0  0  0  0  0  0
    6.8668   -1.7818    6.1548 C   0  0  0  0  0  0
    8.3143   -1.2954    6.2000 C   0  0  0  0  0  0
    6.6028   -2.7886    7.3637 C   0  0  0  0  0  0
    5.4753   -3.9492    7.3486 C   0  0  0  0  0  0
    5.3849   -5.0473    8.4631 C   0  0  0  0  0  0
    4.6569   -4.6761    9.8348 C   0  0  0  0  0  0
    3.1992   -5.1444   10.2223 C   0  0  0  0  0  0
    2.8418   -6.6534   10.1703 C   0  0  0  0  0  0
    3.0993   -7.4853   11.4859 C   0  0  0  0  0  0
    2.0537   -7.3379   12.5984 C   0  0  0  0  0  0
    0.5549   -7.2461   12.1942 C   0  0  0  0  0  0
   -0.0809   -8.3206   11.2633 C   0  0  0  0  0  0
   -0.0395   -8.0325    9.7691 C   0  0  0  0  0  0
    0.4640   -9.6596   11.5575 N   0  0  0  0  0  0
   -0.1707   -7.3565   13.4453 O   0  0  0  0  0  0
    3.1869   -8.8678   11.1244 O   0  0  0  0  0  0
    4.2220   -3.2478    7.4105 O   0  0  0  0  0  0
    3.7896   -0.3224    4.8835 O   0  0  0  0  0  0
    3.2302   -1.5421    4.6729 C   0  0  0  0  0  0
    3.7965   -2.5287    4.2423 O   0  0  0  0  0  0
    1.8073   -1.5034    5.1580 C   0  0  0  0  0  0
    1.6807   -1.8688    6.6456 C   0  0  0  0  0  0
    1.2378   -0.6800    7.5081 C   0  0  0  0  0  0
    2.3829    0.2765    7.7474 C   0  0  0  0  0  0
    3.5631   -0.0375    7.6375 O   0  0  0  0  0  0
    1.9855    1.5103    8.0919 O   0  0  0  0  0  0
    0.6335   -2.9887    6.7173 C   0  0  0  0  0  0
    0.8934   -4.1219    7.0925 O   0  0  0  0  0  0
   -0.5850   -2.6349    6.2859 O   0  0  0  0  0  0
    4.8468    0.9814    2.4133 O   0  0  0  0  0  0
    5.6613    0.5003    1.4018 C   0  0  0  0  0  0
    6.6991   -0.1236    1.5809 O   0  0  0  0  0  0
    5.1187    0.8353    0.0062 C   0  0  0  0  0  0
    5.8917    0.2005   -1.1914 C   0  0  0  0  0  0
    5.4702   -1.2036   -1.6616 C   0  0  0  0  0  0
    6.3949   -1.7780   -2.6957 C   0  0  0  0  0  0
    6.3532   -1.5484   -3.8966 O   0  0  0  0  0  0
    7.3233   -2.5862   -2.1617 O   0  0  0  0  0  0
    5.9766    1.0893   -2.4384 C   0  0  0  0  0  0
    7.0123    1.6012   -2.8151 O   0  0  0  0  0  0
    4.8407    1.1838   -3.1610 O   0  0  0  0  0  0
    0.1515  -10.3124   10.8400 H   0  0  0  0  0  0
    0.0431  -10.0002   12.4248 H   0  0  0  0  0  0
   -1.1002   -7.1513   13.2103 H   0  0  0  0  0  0
    2.2973   -9.1715   10.8657 H   0  0  0  0  0  0
    4.1242   -2.7340    6.5914 H   0  0  0  0  0  0
    1.0212    1.6611    8.0614 H   0  0  0  0  0  0
   -0.6441   -1.7112    5.9364 H   0  0  0  0  0  0
    7.8574   -2.9325   -2.9075 H   0  0  0  0  0  0
    4.6839    2.0571   -3.5841 H   0  0  0  0  0  0
  1  2  1  0  0  0
  2  3  1  0  0  0
  3  4  1  0  0  0
  4  5  1  0  0  0
  5  6  1  0  0  0
  5  7  1  0  0  0
  7  8  1  0  0  0
  7 39  1  0  0  0
  8  9  1  0  0  0
  8 27  1  0  0  0
  9 10  1  0  0  0
 10 11  1  0  0  0
 10 12  1  0  0  0
 12 13  1  0  0  0
 13 14  1  0  0  0
 13 26  1  0  0  0
 14 15  1  0  0  0
 15 16  1  0  0  0
 16 17  1  0  0  0
 17 18  1  0  0  0
 18 19  1  0  0  0
 18 25  1  0  0  0
 19 20  1  0  0  0
 20 21  1  0  0  0
 20 24  1  0  0  0
 21 22  1  0  0  0
 21 23  1  0  0  0
 23 51  1  0  0  0
 23 52  1  0  0  0
 24 53  1  0  0  0
 25 54  1  0  0  0
 26 55  1  0  0  0
 27 28  1  0  0  0
 28 29  2  0  0  0
 28 30  1  0  0  0
 30 31  1  0  0  0
 31 32  1  0  0  0
 31 36  1  0  0  0
 32 33  1  0  0  0
 33 34  2  0  0  0
 33 35  1  0  0  0
 35 56  1  0  0  0
 36 37  2  0  0  0
 36 38  1  0  0  0
 38 57  1  0  0  0
 39 40  1  0  0  0
 40 41  2  0  0  0
 40 42  1  0  0  0
 42 43  1  0  0  0
 43 44  1  0  0  0
 43 48  1  0  0  0
 44 45  1  0  0  0
 45 46  2  0  0  0
 45 47  1  0  0  0
 47 58  1  0  0  0
 48 49  2  0  0  0
 48 50  1  0  0  0
 50 59  1  0  0  0
M  END
>  <AUTHOR>
    GENERATED BY OPEN BABEL 2.4.1

>  <CHROM.1>
165.62325107,-71.20580458,155.91594452,-168.33702028,-58.66440724,136.64153453
-119.73237701,132.98902000,105.50410389,82.66388820,170.85874171,81.37892039
65.52919556,103.39570673,53.57090220,89.26042399,78.57916726,38.79723675
-70.46749716,52.41968254,-91.03307168,170.95931204,-170.71493168,-3.98656439
-88.41116191,112.56365132,-76.70249626,115.76887563,-20.82647035,-5.64924630
2.77171237,19.03268044,-173.70019557,87.95267591,-172.57731648,110.13985730
-83.09599313,178.26221269,145.45822652,4.05848758,-1.87673104,5.35450229
-0.07513629,1.24588636,0.70922601

>  <COMPND>
    UNNAMED

>  <MASTER>
        0    0    0    0    0    0    0    0  109    0  109    0

>  <Name>
FB1.pdb

>  <RI>
0

>  <Rbt.Current_Directory>
/cluster/tossine/FB1_39T3/p3/0_clust01

>  <Rbt.Executable>
rbdock/0.1.0

>  <Rbt.Library>
librxdock.so/0.1.0

>  <Rbt.Parameter_File>
/cluster/rxdock/data/scripts/dock.prm

>  <Rbt.Receptor>
rx_2.prm

>  <SCORE>
9.69954

>  <SCORE.INTER>
-2.37066

>  <SCORE.INTER.CONST>
1

>  <SCORE.INTER.POLAR>
-2.9029

>  <SCORE.INTER.REPUL>
0.413937

>  <SCORE.INTER.ROT>
32

>  <SCORE.INTER.VDW>
-31.9705

>  <SCORE.INTER.norm>
-0.0474131

>  <SCORE.INTRA>
12.0702

>  <SCORE.INTRA.DIHEDRAL>
28.2116

>  <SCORE.INTRA.DIHEDRAL.0>
47.3121

>  <SCORE.INTRA.POLAR>
0.59068

>  <SCORE.INTRA.POLAR.0>
-1.47808

>  <SCORE.INTRA.REPUL>
0

>  <SCORE.INTRA.REPUL.0>
0

>  <SCORE.INTRA.VDW>
-4.04392

>  <SCORE.INTRA.VDW.0>
-2.78316

>  <SCORE.INTRA.norm>
0.241404

>  <SCORE.RESTR>
0

>  <SCORE.RESTR.CAVITY>
0

>  <SCORE.RESTR.norm>
0

>  <SCORE.SYSTEM>
0

>  <SCORE.SYSTEM.CONST>
0

>  <SCORE.SYSTEM.DIHEDRAL>
0

>  <SCORE.SYSTEM.norm>
0

>  <SCORE.heavy>
50

>  <SCORE.norm>
0.193991

$$$$
