FB1.pdb
  RxDock  10072001083D
librxdock.so/0.1.0
 59 58  0  0  0  0  0  0  0  0999 V2000
   -1.6437   -6.8084   10.7353 C   0  0  0  0  0  0
   -1.9447   -6.0210    9.4622 C   0  0  0  0  0  0
   -0.6726   -5.3985    8.8636 C   0  0  0  0  0  0
   -0.1391   -4.1881    9.6698 C   0  0  0  0  0  0
    1.3980   -4.2257    9.9804 C   0  0  0  0  0  0
    1.6239   -5.1448   11.2031 C   0  0  0  0  0  0
    2.2818   -4.6930    8.7482 C   0  0  0  0  0  0
    2.1703   -3.8268    7.4053 C   0  0  0  0  0  0
    0.9200   -3.8184    6.4230 C   0  0  0  0  0  0
    1.2906   -3.6993    4.8199 C   0  0  0  0  0  0
    1.3322   -2.2200    4.4403 C   0  0  0  0  0  0
    2.6421   -4.4087    4.3561 C   0  0  0  0  0  0
    3.4536   -4.0238    3.0101 C   0  0  0  0  0  0
    2.7793   -4.0176    1.5954 C   0  0  0  0  0  0
    3.5590   -3.3226    0.3878 C   0  0  0  0  0  0
    3.7931   -3.9940   -1.0225 C   0  0  0  0  0  0
    4.5259   -3.1993   -2.1355 C   0  0  0  0  0  0
    5.9419   -2.6098   -1.7659 C   0  0  0  0  0  0
    6.9379   -2.4588   -2.9225 C   0  0  0  0  0  0
    6.4834   -1.6810   -4.1901 C   0  0  0  0  0  0
    5.8619   -0.2585   -4.0653 C   0  0  0  0  0  0
    4.3533   -0.1929   -3.8718 C   0  0  0  0  0  0
    6.5607    0.5317   -3.0340 N   0  0  0  0  0  0
    7.6974   -1.4940   -4.9616 O   0  0  0  0  0  0
    5.7428   -1.3250   -1.1665 O   0  0  0  0  0  0
    3.8977   -2.6727    3.2200 O   0  0  0  0  0  0
    2.3240   -2.4376    7.8038 O   0  0  0  0  0  0
    2.9773   -1.6169    6.9407 C   0  0  0  0  0  0
    3.7402   -1.9615    6.0583 O   0  0  0  0  0  0
    2.5223   -0.2053    7.1893 C   0  0  0  0  0  0
    3.6718    0.8107    7.0951 C   0  0  0  0  0  0
    3.1722    2.2588    7.0132 C   0  0  0  0  0  0
    3.3919    2.8341    5.6333 C   0  0  0  0  0  0
    3.8340    3.9597    5.4302 O   0  0  0  0  0  0
    3.0576    1.9923    4.6440 O   0  0  0  0  0  0
    4.5121    0.6159    8.3647 C   0  0  0  0  0  0
    4.2741   -0.2468    9.1962 O   0  0  0  0  0  0
    5.5039    1.5049    8.5132 O   0  0  0  0  0  0
    3.6922   -4.9097    9.1525 O   0  0  0  0  0  0
    4.0771   -6.1805    9.5465 C   0  0  0  0  0  0
    3.3107   -7.1209    9.7099 O   0  0  0  0  0  0
    5.5924   -6.2914    9.7607 C   0  0  0  0  0  0
    6.2698   -7.5630    9.1619 C   0  0  0  0  0  0
    7.4735   -7.3668    8.2221 C   0  0  0  0  0  0
    7.0728   -7.1775    6.7875 C   0  0  0  0  0  0
    5.9407   -7.3006    6.3407 O   0  0  0  0  0  0
    8.1072   -6.8280    6.0077 O   0  0  0  0  0  0
    6.6722   -8.6193   10.1986 C   0  0  0  0  0  0
    6.4537   -8.4943   11.3875 O   0  0  0  0  0  0
    7.1940   -9.7570    9.6941 O   0  0  0  0  0  0
    7.5551    0.3103   -3.0603 H   0  0  0  0  0  0
    6.2453    0.2185   -2.1131 H   0  0  0  0  0  0
    7.9474   -2.3969   -5.2508 H   0  0  0  0  0  0
    4.8034   -1.2480   -0.9170 H   0  0  0  0  0  0
    4.2976   -2.6216    4.1043 H   0  0  0  0  0  0
    2.8981    2.4113    3.7766 H   0  0  0  0  0  0
    5.5101    2.2288    7.8388 H   0  0  0  0  0  0
    7.8157   -6.9546    5.0802 H   0  0  0  0  0  0
    7.4613  -10.4279   10.3609 H   0  0  0  0  0  0
  1  2  1  0  0  0
  2  3  1  0  0  0
  3  4  1  0  0  0
  4  5  1  0  0  0
  5  6  1  0  0  0
  5  7  1  0  0  0
  7  8  1  0  0  0
  7 39  1  0  0  0
  8  9  1  0  0  0
  8 27  1  0  0  0
  9 10  1  0  0  0
 10 11  1  0  0  0
 10 12  1  0  0  0
 12 13  1  0  0  0
 13 14  1  0  0  0
 13 26  1  0  0  0
 14 15  1  0  0  0
 15 16  1  0  0  0
 16 17  1  0  0  0
 17 18  1  0  0  0
 18 19  1  0  0  0
 18 25  1  0  0  0
 19 20  1  0  0  0
 20 21  1  0  0  0
 20 24  1  0  0  0
 21 22  1  0  0  0
 21 23  1  0  0  0
 23 51  1  0  0  0
 23 52  1  0  0  0
 24 53  1  0  0  0
 25 54  1  0  0  0
 26 55  1  0  0  0
 27 28  1  0  0  0
 28 29  2  0  0  0
 28 30  1  0  0  0
 30 31  1  0  0  0
 31 32  1  0  0  0
 31 36  1  0  0  0
 32 33  1  0  0  0
 33 34  2  0  0  0
 33 35  1  0  0  0
 35 56  1  0  0  0
 36 37  2  0  0  0
 36 38  1  0  0  0
 38 57  1  0  0  0
 39 40  1  0  0  0
 40 41  2  0  0  0
 40 42  1  0  0  0
 42 43  1  0  0  0
 43 44  1  0  0  0
 43 48  1  0  0  0
 44 45  1  0  0  0
 45 46  2  0  0  0
 45 47  1  0  0  0
 47 58  1  0  0  0
 48 49  2  0  0  0
 48 50  1  0  0  0
 50 59  1  0  0  0
M  END
>  <AUTHOR>
    GENERATED BY OPEN BABEL 2.4.1

>  <CHROM.1>
-73.17691420,131.94146146,-80.97342821,58.43110970,-72.39858997,92.25880428
-143.32695983,144.78876784,-90.17049504,-158.40315828,-54.64017835,166.72250703
47.77836730,130.60781081,177.95139832,54.19379367,150.79702722,52.87237484
15.33476776,51.64528259,-88.62013023,67.49258425,36.81709215,-20.71726897
140.56282794,166.31694073,-108.83007748,3.17741489,-135.94004475,160.27925504
6.12020257,-7.30897084,-135.48845340,126.55673274,-87.49961767,1.69659339
-7.56968846,165.56619086,179.28331386,3.95640047,-3.28551841,5.26945569,1.93357324
-1.06078047,2.27606262

>  <COMPND>
    UNNAMED

>  <MASTER>
        0    0    0    0    0    0    0    0  109    0  109    0

>  <Name>
FB1.pdb

>  <RI>
0

>  <Rbt.Current_Directory>
/cluster/tossine/FB1_39T3/p3/0_clust01

>  <Rbt.Executable>
rbdock/0.1.0

>  <Rbt.Library>
librxdock.so/0.1.0

>  <Rbt.Parameter_File>
/cluster/rxdock/data/scripts/dock.prm

>  <Rbt.Receptor>
rx_4.prm

>  <SCORE>
8.60049

>  <SCORE.INTER>
-7.17709

>  <SCORE.INTER.CONST>
1

>  <SCORE.INTER.POLAR>
-3.99845

>  <SCORE.INTER.REPUL>
0.134107

>  <SCORE.INTER.ROT>
32

>  <SCORE.INTER.VDW>
-31.6529

>  <SCORE.INTER.norm>
-0.143542

>  <SCORE.INTRA>
15.7776

>  <SCORE.INTRA.DIHEDRAL>
28.6969

>  <SCORE.INTRA.DIHEDRAL.0>
47.3121

>  <SCORE.INTRA.POLAR>
-0.0463011

>  <SCORE.INTRA.POLAR.0>
-1.47808

>  <SCORE.INTRA.REPUL>
0

>  <SCORE.INTRA.REPUL.0>
0

>  <SCORE.INTRA.VDW>
1.58654

>  <SCORE.INTRA.VDW.0>
-2.78316

>  <SCORE.INTRA.norm>
0.315551

>  <SCORE.RESTR>
0

>  <SCORE.RESTR.CAVITY>
0

>  <SCORE.RESTR.norm>
0

>  <SCORE.SYSTEM>
0

>  <SCORE.SYSTEM.CONST>
0

>  <SCORE.SYSTEM.DIHEDRAL>
0

>  <SCORE.SYSTEM.norm>
0

>  <SCORE.heavy>
50

>  <SCORE.norm>
0.17201

$$$$
