FB1.pdb
  RxDock  10072001103D
librxdock.so/0.1.0
 59 58  0  0  0  0  0  0  0  0999 V2000
   10.0350   -3.0295    7.1446 C   0  0  0  0  0  0
    9.4448   -4.0169    6.1406 C   0  0  0  0  0  0
    8.4931   -5.0169    6.8176 C   0  0  0  0  0  0
    7.1607   -4.3809    7.2865 C   0  0  0  0  0  0
    6.2496   -3.8293    6.1350 C   0  0  0  0  0  0
    5.5766   -5.0301    5.4309 C   0  0  0  0  0  0
    5.1656   -2.7823    6.6316 C   0  0  0  0  0  0
    4.8216   -1.5697    5.6429 C   0  0  0  0  0  0
    4.2879   -1.7268    4.1533 C   0  0  0  0  0  0
    4.7344   -0.5213    3.1196 C   0  0  0  0  0  0
    5.8509    0.2904    3.7743 C   0  0  0  0  0  0
    5.1904   -0.9788    1.6610 C   0  0  0  0  0  0
    5.1595   -0.0198    0.3579 C   0  0  0  0  0  0
    5.6311    1.4741    0.4028 C   0  0  0  0  0  0
    5.5092    2.3471   -0.9284 C   0  0  0  0  0  0
    6.6965    2.5957   -1.9399 C   0  0  0  0  0  0
    7.7091    3.7386   -1.6644 C   0  0  0  0  0  0
    7.4432    5.1091   -2.3994 C   0  0  0  0  0  0
    8.1554    6.3388   -1.8223 C   0  0  0  0  0  0
    9.6494    6.2012   -1.4130 C   0  0  0  0  0  0
   10.0513    5.3892   -0.1462 C   0  0  0  0  0  0
   11.5296    5.0596    0.0064 C   0  0  0  0  0  0
    9.5242    6.0264    1.0755 N   0  0  0  0  0  0
   10.2710    5.5009   -2.5207 O   0  0  0  0  0  0
    7.8330    4.9588   -3.7688 O   0  0  0  0  0  0
    6.0285   -0.6592   -0.5922 O   0  0  0  0  0  0
    3.8002   -0.7792    6.3095 O   0  0  0  0  0  0
    3.6181    0.4924    5.8675 C   0  0  0  0  0  0
    3.0776    0.8226    4.8292 O   0  0  0  0  0  0
    4.1078    1.4395    6.9280 C   0  0  0  0  0  0
    3.6860    1.0111    8.3425 C   0  0  0  0  0  0
    4.2244    1.9523    9.4277 C   0  0  0  0  0  0
    5.7209    1.8092    9.5800 C   0  0  0  0  0  0
    6.3834    0.9565    8.9988 O   0  0  0  0  0  0
    6.2616    2.7091   10.4147 O   0  0  0  0  0  0
    2.1512    1.0267    8.3479 C   0  0  0  0  0  0
    1.4952    2.0000    8.6869 O   0  0  0  0  0  0
    1.5851   -0.1359    7.9961 O   0  0  0  0  0  0
    3.9422   -3.4670    7.1156 O   0  0  0  0  0  0
    3.9386   -3.9783    8.4028 C   0  0  0  0  0  0
    4.9134   -4.0093    9.1425 O   0  0  0  0  0  0
    2.5603   -4.5118    8.8152 C   0  0  0  0  0  0
    2.2907   -6.0141    8.4910 C   0  0  0  0  0  0
    0.8891   -6.4053    7.9882 C   0  0  0  0  0  0
   -0.2111   -5.9431    8.8995 C   0  0  0  0  0  0
   -0.0656   -5.5328   10.0427 O   0  0  0  0  0  0
   -1.4188   -6.0048    8.3182 O   0  0  0  0  0  0
    3.3085   -6.6533    7.5382 C   0  0  0  0  0  0
    3.0574   -6.9052    6.3762 O   0  0  0  0  0  0
    4.5479   -6.8240    8.0440 O   0  0  0  0  0  0
    9.1063    6.9231    0.8309 H   0  0  0  0  0  0
   10.3096    6.2598    1.6871 H   0  0  0  0  0  0
   11.2278    5.6944   -2.4290 H   0  0  0  0  0  0
    8.8000    4.8378   -3.7983 H   0  0  0  0  0  0
    6.9089   -0.7389   -0.1883 H   0  0  0  0  0  0
    5.6421    3.3781   10.7642 H   0  0  0  0  0  0
    2.2240   -0.8283    7.6941 H   0  0  0  0  0  0
   -1.2760   -6.3391    7.4076 H   0  0  0  0  0  0
    4.6687   -6.5192    8.9706 H   0  0  0  0  0  0
  1  2  1  0  0  0
  2  3  1  0  0  0
  3  4  1  0  0  0
  4  5  1  0  0  0
  5  6  1  0  0  0
  5  7  1  0  0  0
  7  8  1  0  0  0
  7 39  1  0  0  0
  8  9  1  0  0  0
  8 27  1  0  0  0
  9 10  1  0  0  0
 10 11  1  0  0  0
 10 12  1  0  0  0
 12 13  1  0  0  0
 13 14  1  0  0  0
 13 26  1  0  0  0
 14 15  1  0  0  0
 15 16  1  0  0  0
 16 17  1  0  0  0
 17 18  1  0  0  0
 18 19  1  0  0  0
 18 25  1  0  0  0
 19 20  1  0  0  0
 20 21  1  0  0  0
 20 24  1  0  0  0
 21 22  1  0  0  0
 21 23  1  0  0  0
 23 51  1  0  0  0
 23 52  1  0  0  0
 24 53  1  0  0  0
 25 54  1  0  0  0
 26 55  1  0  0  0
 27 28  1  0  0  0
 28 29  2  0  0  0
 28 30  1  0  0  0
 30 31  1  0  0  0
 31 32  1  0  0  0
 31 36  1  0  0  0
 32 33  1  0  0  0
 33 34  2  0  0  0
 33 35  1  0  0  0
 35 56  1  0  0  0
 36 37  2  0  0  0
 36 38  1  0  0  0
 38 57  1  0  0  0
 39 40  1  0  0  0
 40 41  2  0  0  0
 40 42  1  0  0  0
 42 43  1  0  0  0
 43 44  1  0  0  0
 43 48  1  0  0  0
 44 45  1  0  0  0
 45 46  2  0  0  0
 45 47  1  0  0  0
 47 58  1  0  0  0
 48 49  2  0  0  0
 48 50  1  0  0  0
 50 59  1  0  0  0
M  END
>  <AUTHOR>
    GENERATED BY OPEN BABEL 2.4.1

>  <CHROM.1>
70.83061040,64.30223743,75.55332192,144.23086889,57.67888166,81.39390130
-149.44187621,161.48762094,13.84441729,157.24931314,42.62624939,-177.82290455
-58.50374738,-97.18298088,-84.22647149,-96.49536165,161.92773736,43.62583392
-66.73152039,-72.09857005,167.27555275,160.19644294,-6.81282882,73.82726686
-42.55906918,178.12430803,-70.24897821,-92.17588600,-6.59142563,-4.33234857
-5.60861166,-6.49708567,89.83410348,-140.58459735,-53.84751576,-105.80877500
-13.66712807,-0.60923923,-0.08053467,5.25289393,-0.61254126,4.85741678,-2.85670115
1.14825832,0.43972866

>  <COMPND>
    UNNAMED

>  <MASTER>
        0    0    0    0    0    0    0    0  109    0  109    0

>  <Name>
FB1.pdb

>  <RI>
0

>  <Rbt.Current_Directory>
/cluster/tossine/FB1_39T3/p3/0_clust01

>  <Rbt.Executable>
rbdock/0.1.0

>  <Rbt.Library>
librxdock.so/0.1.0

>  <Rbt.Parameter_File>
/cluster/rxdock/data/scripts/dock.prm

>  <Rbt.Receptor>
rx_4.prm

>  <SCORE>
29.427

>  <SCORE.INTER>
7.22882

>  <SCORE.INTER.CONST>
1

>  <SCORE.INTER.POLAR>
-1.2507

>  <SCORE.INTER.REPUL>
0.201069

>  <SCORE.INTER.ROT>
32

>  <SCORE.INTER.VDW>
-26.9242

>  <SCORE.INTER.norm>
0.144576

>  <SCORE.INTRA>
22.1076

>  <SCORE.INTRA.DIHEDRAL>
28.4294

>  <SCORE.INTRA.DIHEDRAL.0>
47.3121

>  <SCORE.INTRA.POLAR>
0.225631

>  <SCORE.INTRA.POLAR.0>
-1.47808

>  <SCORE.INTRA.REPUL>
0

>  <SCORE.INTRA.REPUL.0>
0

>  <SCORE.INTRA.VDW>
7.12575

>  <SCORE.INTRA.VDW.0>
-2.78316

>  <SCORE.INTRA.norm>
0.442152

>  <SCORE.RESTR>
0.0906189

>  <SCORE.RESTR.CAVITY>
0.0906189

>  <SCORE.RESTR.norm>
0.00181238

>  <SCORE.SYSTEM>
0

>  <SCORE.SYSTEM.CONST>
0

>  <SCORE.SYSTEM.DIHEDRAL>
0

>  <SCORE.SYSTEM.norm>
0

>  <SCORE.heavy>
50

>  <SCORE.norm>
0.588541

$$$$
