FB1.pdb
  RxDock  10072001123D
librxdock.so/0.1.0
 59 58  0  0  0  0  0  0  0  0999 V2000
   10.2122   -3.7304    5.6020 C   0  0  0  0  0  0
    8.8286   -4.1847    6.0609 C   0  0  0  0  0  0
    8.3870   -3.4588    7.3424 C   0  0  0  0  0  0
    6.9782   -3.8754    7.8338 C   0  0  0  0  0  0
    5.7897   -3.0884    7.1793 C   0  0  0  0  0  0
    5.6717   -3.5279    5.7016 C   0  0  0  0  0  0
    4.4098   -3.2779    7.9395 C   0  0  0  0  0  0
    3.0997   -2.7020    7.2198 C   0  0  0  0  0  0
    1.7988   -3.5484    6.8739 C   0  0  0  0  0  0
    2.0595   -4.8794    5.9349 C   0  0  0  0  0  0
    1.2761   -6.0506    6.5254 C   0  0  0  0  0  0
    1.7079   -4.7272    4.3864 C   0  0  0  0  0  0
    2.6672   -3.9998    3.3051 C   0  0  0  0  0  0
    2.6042   -4.3248    1.7733 C   0  0  0  0  0  0
    3.6942   -3.6622    0.8130 C   0  0  0  0  0  0
    5.2362   -3.5775    1.1441 C   0  0  0  0  0  0
    6.2601   -3.4376   -0.0132 C   0  0  0  0  0  0
    6.4753   -1.9862   -0.5933 C   0  0  0  0  0  0
    5.4124   -1.4838   -1.5783 C   0  0  0  0  0  0
    5.2830   -2.2005   -2.9523 C   0  0  0  0  0  0
    6.5009   -2.2836   -3.9193 C   0  0  0  0  0  0
    7.7228   -3.0331   -3.4070 C   0  0  0  0  0  0
    6.0880   -2.7899   -5.2420 N   0  0  0  0  0  0
    4.9722   -3.5779   -2.6206 O   0  0  0  0  0  0
    6.5405   -1.0751    0.5092 O   0  0  0  0  0  0
    2.3445   -2.6025    3.4057 O   0  0  0  0  0  0
    2.6132   -1.6234    8.0639 O   0  0  0  0  0  0
    3.2630   -0.4334    7.9800 C   0  0  0  0  0  0
    4.0142   -0.0852    7.0890 O   0  0  0  0  0  0
    2.8204    0.4325    9.1270 C   0  0  0  0  0  0
    2.7608    1.9222    8.7532 C   0  0  0  0  0  0
    1.3902    2.5475    9.0428 C   0  0  0  0  0  0
    1.1093    3.7018    8.1090 C   0  0  0  0  0  0
    0.3065    3.6458    7.1837 O   0  0  0  0  0  0
    1.8236    4.8018    8.3892 O   0  0  0  0  0  0
    3.8417    2.6123    9.5968 C   0  0  0  0  0  0
    3.5929    3.4822   10.4176 O   0  0  0  0  0  0
    5.0927    2.2166    9.3238 O   0  0  0  0  0  0
    4.2288   -4.6831    8.3783 O   0  0  0  0  0  0
    3.2135   -4.9676    9.2762 C   0  0  0  0  0  0
    2.5988   -4.1282    9.9212 O   0  0  0  0  0  0
    2.9317   -6.4722    9.3814 C   0  0  0  0  0  0
    3.2643   -7.1291   10.7570 C   0  0  0  0  0  0
    2.5153   -8.4176   11.1433 C   0  0  0  0  0  0
    2.2814   -8.5394   12.6214 C   0  0  0  0  0  0
    2.6186   -7.7222   13.4670 O   0  0  0  0  0  0
    1.6249   -9.6637   12.9462 O   0  0  0  0  0  0
    4.7574   -7.3838   10.9977 C   0  0  0  0  0  0
    5.5884   -7.3241   10.1130 O   0  0  0  0  0  0
    5.1122   -7.5760   12.2855 O   0  0  0  0  0  0
    5.8338   -3.7733   -5.1589 H   0  0  0  0  0  0
    6.8997   -2.7794   -5.8637 H   0  0  0  0  0  0
    4.8893   -4.0278   -3.4878 H   0  0  0  0  0  0
    7.4277   -1.1428    0.9077 H   0  0  0  0  0  0
    2.6047   -2.2968    4.2908 H   0  0  0  0  0  0
    2.3913    4.7393    9.1812 H   0  0  0  0  0  0
    5.1645    1.2911    8.9816 H   0  0  0  0  0  0
    1.9027  -10.3479   12.3012 H   0  0  0  0  0  0
    6.0655   -7.7639   12.4346 H   0  0  0  0  0  0
  1  2  1  0  0  0
  2  3  1  0  0  0
  3  4  1  0  0  0
  4  5  1  0  0  0
  5  6  1  0  0  0
  5  7  1  0  0  0
  7  8  1  0  0  0
  7 39  1  0  0  0
  8  9  1  0  0  0
  8 27  1  0  0  0
  9 10  1  0  0  0
 10 11  1  0  0  0
 10 12  1  0  0  0
 12 13  1  0  0  0
 13 14  1  0  0  0
 13 26  1  0  0  0
 14 15  1  0  0  0
 15 16  1  0  0  0
 16 17  1  0  0  0
 17 18  1  0  0  0
 18 19  1  0  0  0
 18 25  1  0  0  0
 19 20  1  0  0  0
 20 21  1  0  0  0
 20 24  1  0  0  0
 21 22  1  0  0  0
 21 23  1  0  0  0
 23 51  1  0  0  0
 23 52  1  0  0  0
 24 53  1  0  0  0
 25 54  1  0  0  0
 26 55  1  0  0  0
 27 28  1  0  0  0
 28 29  2  0  0  0
 28 30  1  0  0  0
 30 31  1  0  0  0
 31 32  1  0  0  0
 31 36  1  0  0  0
 32 33  1  0  0  0
 33 34  2  0  0  0
 33 35  1  0  0  0
 35 56  1  0  0  0
 36 37  2  0  0  0
 36 38  1  0  0  0
 38 57  1  0  0  0
 39 40  1  0  0  0
 40 41  2  0  0  0
 40 42  1  0  0  0
 42 43  1  0  0  0
 43 44  1  0  0  0
 43 48  1  0  0  0
 44 45  1  0  0  0
 45 46  2  0  0  0
 45 47  1  0  0  0
 47 58  1  0  0  0
 48 49  2  0  0  0
 48 50  1  0  0  0
 50 59  1  0  0  0
M  END
>  <AUTHOR>
    GENERATED BY OPEN BABEL 2.4.1

>  <CHROM.1>
179.20618150,-85.76507328,70.32519140,-170.74052448,124.22590388,167.54059840
-56.60980546,78.16299885,135.15139525,79.46496397,155.74995369,-173.83262214
65.03157873,44.15656731,156.41828496,81.50445345,-79.44861460,-66.04356697
78.10269683,-58.02282838,61.88797047,179.89628626,-69.36904109,16.65185772
-145.75027242,125.43207492,-151.85347049,-118.51648246,106.78320437,-3.28685942
-28.20789368,-13.53907540,113.83339276,155.42812472,-147.50467051,-13.41469014
0.73285339,32.69761655,178.36723692,4.12029709,-2.94751370,6.06688591,-0.77433603
-1.28487205,2.53555882

>  <COMPND>
    UNNAMED

>  <MASTER>
        0    0    0    0    0    0    0    0  109    0  109    0

>  <Name>
FB1.pdb

>  <RI>
0

>  <Rbt.Current_Directory>
/cluster/tossine/FB1_39T3/p3/0_clust01

>  <Rbt.Executable>
rbdock/0.1.0

>  <Rbt.Library>
librxdock.so/0.1.0

>  <Rbt.Parameter_File>
/cluster/rxdock/data/scripts/dock.prm

>  <Rbt.Receptor>
rx_4.prm

>  <SCORE>
17.9277

>  <SCORE.INTER>
4.85157

>  <SCORE.INTER.CONST>
1

>  <SCORE.INTER.POLAR>
-2.06322

>  <SCORE.INTER.REPUL>
0.069621

>  <SCORE.INTER.ROT>
32

>  <SCORE.INTER.VDW>
-25.8816

>  <SCORE.INTER.norm>
0.0970314

>  <SCORE.INTRA>
12.3931

>  <SCORE.INTRA.DIHEDRAL>
17.0737

>  <SCORE.INTRA.DIHEDRAL.0>
47.3121

>  <SCORE.INTRA.POLAR>
1.47808

>  <SCORE.INTRA.POLAR.0>
-1.47808

>  <SCORE.INTRA.REPUL>
0

>  <SCORE.INTRA.REPUL.0>
0

>  <SCORE.INTRA.VDW>
-1.16919

>  <SCORE.INTRA.VDW.0>
-2.78316

>  <SCORE.INTRA.norm>
0.247863

>  <SCORE.RESTR>
0.683042

>  <SCORE.RESTR.CAVITY>
0.683042

>  <SCORE.RESTR.norm>
0.0136608

>  <SCORE.SYSTEM>
0

>  <SCORE.SYSTEM.CONST>
0

>  <SCORE.SYSTEM.DIHEDRAL>
0

>  <SCORE.SYSTEM.norm>
0

>  <SCORE.heavy>
50

>  <SCORE.norm>
0.358555

$$$$
