FB1.pdb
  RxDock  10062022273D
librxdock.so/0.1.0
 59 58  0  0  0  0  0  0  0  0999 V2000
   10.3486   -3.4757    5.6204 C   0  0  0  0  0  0
    9.9877   -3.0637    7.0457 C   0  0  0  0  0  0
    8.4791   -3.1955    7.3118 C   0  0  0  0  0  0
    7.6265   -2.1348    6.5717 C   0  0  0  0  0  0
    6.1061   -2.1215    6.9573 C   0  0  0  0  0  0
    5.3927   -1.0644    6.0832 C   0  0  0  0  0  0
    5.4054   -3.5385    6.8192 C   0  0  0  0  0  0
    3.9964   -3.7264    7.5577 C   0  0  0  0  0  0
    3.7740   -4.5234    8.9155 C   0  0  0  0  0  0
    3.8491   -6.1660    8.7827 C   0  0  0  0  0  0
    5.3155   -6.5760    8.6576 C   0  0  0  0  0  0
    3.1592   -6.9985    9.9556 C   0  0  0  0  0  0
    3.4901   -6.7981   11.5269 C   0  0  0  0  0  0
    2.7178   -7.5675   12.6529 C   0  0  0  0  0  0
    1.3713   -8.3311   12.2617 C   0  0  0  0  0  0
    1.3139   -9.6250   11.3577 C   0  0  0  0  0  0
    2.4574  -10.6700   11.4450 C   0  0  0  0  0  0
    2.7940  -11.2293   12.8813 C   0  0  0  0  0  0
    3.5602  -10.2847   13.8158 C   0  0  0  0  0  0
    5.1142  -10.3411   13.8089 C   0  0  0  0  0  0
    5.9493   -9.2414   14.5291 C   0  0  0  0  0  0
    5.2183   -7.9505   14.8705 C   0  0  0  0  0  0
    6.6301   -9.7917   15.7165 N   0  0  0  0  0  0
    5.4404  -11.5735   14.5008 O   0  0  0  0  0  0
    1.5621  -11.5937   13.5133 O   0  0  0  0  0  0
    4.8623   -7.2018   11.6700 O   0  0  0  0  0  0
    3.5046   -2.3884    7.8412 O   0  0  0  0  0  0
    4.0686   -1.7331    8.8890 C   0  0  0  0  0  0
    4.9867   -2.1344    9.5786 O   0  0  0  0  0  0
    3.4353   -0.3734    8.9965 C   0  0  0  0  0  0
    1.8996   -0.4365    9.0058 C   0  0  0  0  0  0
    1.2581    0.8965    9.4119 C   0  0  0  0  0  0
    1.9247    2.0580    8.7118 C   0  0  0  0  0  0
    2.1464    2.0864    7.5061 O   0  0  0  0  0  0
    2.2521    3.0629    9.5374 O   0  0  0  0  0  0
    1.4839   -0.8050    7.5749 C   0  0  0  0  0  0
    1.7412   -0.1080    6.6052 O   0  0  0  0  0  0
    0.7692   -1.9347    7.4803 O   0  0  0  0  0  0
    5.3508   -3.9730    5.4021 O   0  0  0  0  0  0
    4.2499   -3.6110    4.6438 C   0  0  0  0  0  0
    3.3303   -2.9084    5.0424 O   0  0  0  0  0  0
    4.3023   -4.1916    3.2244 C   0  0  0  0  0  0
    3.1949   -3.6903    2.2463 C   0  0  0  0  0  0
    3.3547   -4.0086    0.7484 C   0  0  0  0  0  0
    4.7802   -3.9358    0.2822 C   0  0  0  0  0  0
    5.5485   -4.8828    0.1855 O   0  0  0  0  0  0
    5.1479   -2.6893   -0.0515 O   0  0  0  0  0  0
    1.7670   -4.0852    2.6433 C   0  0  0  0  0  0
    1.4749   -5.1969    3.0378 O   0  0  0  0  0  0
    0.8635   -3.0828    2.6293 O   0  0  0  0  0  0
    7.3233   -9.1208   16.0451 H   0  0  0  0  0  0
    7.1711  -10.6115   15.4323 H   0  0  0  0  0  0
    6.2267  -11.9206   14.0291 H   0  0  0  0  0  0
    1.7648  -11.9195   14.4095 H   0  0  0  0  0  0
    4.9746   -8.0527   11.2140 H   0  0  0  0  0  0
    2.7384    3.8012    9.1227 H   0  0  0  0  0  0
    0.6548   -2.4203    8.3346 H   0  0  0  0  0  0
    6.0768   -2.7433   -0.3608 H   0  0  0  0  0  0
    0.2060   -3.1002    3.3597 H   0  0  0  0  0  0
  1  2  1  0  0  0
  2  3  1  0  0  0
  3  4  1  0  0  0
  4  5  1  0  0  0
  5  6  1  0  0  0
  5  7  1  0  0  0
  7  8  1  0  0  0
  7 39  1  0  0  0
  8  9  1  0  0  0
  8 27  1  0  0  0
  9 10  1  0  0  0
 10 11  1  0  0  0
 10 12  1  0  0  0
 12 13  1  0  0  0
 13 14  1  0  0  0
 13 26  1  0  0  0
 14 15  1  0  0  0
 15 16  1  0  0  0
 16 17  1  0  0  0
 17 18  1  0  0  0
 18 19  1  0  0  0
 18 25  1  0  0  0
 19 20  1  0  0  0
 20 21  1  0  0  0
 20 24  1  0  0  0
 21 22  1  0  0  0
 21 23  1  0  0  0
 23 51  1  0  0  0
 23 52  1  0  0  0
 24 53  1  0  0  0
 25 54  1  0  0  0
 26 55  1  0  0  0
 27 28  1  0  0  0
 28 29  2  0  0  0
 28 30  1  0  0  0
 30 31  1  0  0  0
 31 32  1  0  0  0
 31 36  1  0  0  0
 32 33  1  0  0  0
 33 34  2  0  0  0
 33 35  1  0  0  0
 35 56  1  0  0  0
 36 37  2  0  0  0
 36 38  1  0  0  0
 38 57  1  0  0  0
 39 40  1  0  0  0
 40 41  2  0  0  0
 40 42  1  0  0  0
 42 43  1  0  0  0
 43 44  1  0  0  0
 43 48  1  0  0  0
 44 45  1  0  0  0
 45 46  2  0  0  0
 45 47  1  0  0  0
 47 58  1  0  0  0
 48 49  2  0  0  0
 48 50  1  0  0  0
 50 59  1  0  0  0
M  END
>  <AUTHOR>
    GENERATED BY OPEN BABEL 2.4.1

>  <CHROM.1>
-70.89911972,-172.65035642,-177.13961019,163.59262048,-103.83640640,-89.54363061
-73.98068739,-76.94789995,76.23964312,-53.75917849,175.67175156,-13.09093418
-47.58171588,69.23153290,34.83514616,53.87055096,-74.78329047,-90.87327731
-178.64850805,168.67317436,-16.93527557,143.50975505,167.52262590,3.41351229
50.96758975,167.78730918,44.57598068,-61.15331194,48.45345355,176.05655685
-4.09285839,2.95406656,-172.65049348,167.94925742,-37.22327172,-43.61875351
95.69586886,-178.67491012,-141.19088939,3.97507726,-4.54797535,8.12873477
-1.63025225,-1.28997540,2.21501695

>  <COMPND>
    UNNAMED

>  <MASTER>
        0    0    0    0    0    0    0    0  109    0  109    0

>  <Name>
FB1.pdb

>  <RI>
0

>  <Rbt.Current_Directory>
/cluster/tossine/FB1_39T3/p3/0_clust01

>  <Rbt.Executable>
rbdock/0.1.0

>  <Rbt.Library>
librxdock.so/0.1.0

>  <Rbt.Parameter_File>
/cluster/rxdock/data/scripts/dock.prm

>  <Rbt.Receptor>
rx_0.prm

>  <SCORE>
16.153

>  <SCORE.INTER>
0.150038

>  <SCORE.INTER.CONST>
1

>  <SCORE.INTER.POLAR>
-1.42178

>  <SCORE.INTER.REPUL>
0.351842

>  <SCORE.INTER.ROT>
32

>  <SCORE.INTER.VDW>
-34.1751

>  <SCORE.INTER.norm>
0.00300075

>  <SCORE.INTRA>
16.003

>  <SCORE.INTRA.DIHEDRAL>
14.6962

>  <SCORE.INTRA.DIHEDRAL.0>
47.3121

>  <SCORE.INTRA.POLAR>
1.47808

>  <SCORE.INTRA.POLAR.0>
-1.47808

>  <SCORE.INTRA.REPUL>
0

>  <SCORE.INTRA.REPUL.0>
0

>  <SCORE.INTRA.VDW>
3.62939

>  <SCORE.INTRA.VDW.0>
-2.78316

>  <SCORE.INTRA.norm>
0.320059

>  <SCORE.RESTR>
0

>  <SCORE.RESTR.CAVITY>
0

>  <SCORE.RESTR.norm>
0

>  <SCORE.SYSTEM>
0

>  <SCORE.SYSTEM.CONST>
0

>  <SCORE.SYSTEM.DIHEDRAL>
0

>  <SCORE.SYSTEM.norm>
0

>  <SCORE.heavy>
50

>  <SCORE.norm>
0.32306

$$$$
