FB1.pdb
  RxDock  09132011053D
librxdock.so/0.1.0
 59 58  0  0  0  0  0  0  0  0999 V2000
    1.1217   -7.7859   12.8970 C   0  0  0  0  0  0
    2.4348   -7.8785   12.1233 C   0  0  0  0  0  0
    2.4815   -6.8755   10.9588 C   0  0  0  0  0  0
    1.5255   -7.2361    9.7945 C   0  0  0  0  0  0
    2.2358   -7.6933    8.4727 C   0  0  0  0  0  0
    1.1541   -8.1974    7.4896 C   0  0  0  0  0  0
    3.1241   -6.5597    7.8065 C   0  0  0  0  0  0
    4.1845   -7.0253    6.6997 C   0  0  0  0  0  0
    3.9564   -6.9559    5.1277 C   0  0  0  0  0  0
    3.6763   -5.4450    4.5276 C   0  0  0  0  0  0
    5.0133   -4.8312    4.1153 C   0  0  0  0  0  0
    2.6471   -5.3507    3.3124 C   0  0  0  0  0  0
    3.0829   -5.1410    1.7681 C   0  0  0  0  0  0
    4.0183   -3.9697    1.3108 C   0  0  0  0  0  0
    3.6741   -3.2139   -0.0528 C   0  0  0  0  0  0
    4.2822   -3.5971   -1.4592 C   0  0  0  0  0  0
    5.5960   -2.9218   -1.9338 C   0  0  0  0  0  0
    5.6713   -2.5176   -3.4570 C   0  0  0  0  0  0
    4.5335   -1.6335   -3.9823 C   0  0  0  0  0  0
    4.1797   -0.3409   -3.1933 C   0  0  0  0  0  0
    5.2884    0.6874   -2.8210 C   0  0  0  0  0  0
    6.0098    1.3563   -3.9827 C   0  0  0  0  0  0
    4.7755    1.6919   -1.8700 N   0  0  0  0  0  0
    3.2723    0.3836   -4.0626 O   0  0  0  0  0  0
    6.9125   -1.8374   -3.6726 O   0  0  0  0  0  0
    3.7880   -6.3434    1.4166 O   0  0  0  0  0  0
    5.3817   -6.2325    6.9250 O   0  0  0  0  0  0
    6.0810   -6.4810    8.0627 C   0  0  0  0  0  0
    5.9359   -7.4356    8.8024 O   0  0  0  0  0  0
    7.1437   -5.4270    8.2080 C   0  0  0  0  0  0
    6.5711   -4.0013    8.1629 C   0  0  0  0  0  0
    5.9651   -3.6532    6.7973 C   0  0  0  0  0  0
    5.0840   -2.4290    6.8880 C   0  0  0  0  0  0
    5.4884   -1.3269    7.2422 O   0  0  0  0  0  0
    3.8094   -2.6611    6.5408 O   0  0  0  0  0  0
    5.4866   -3.9477    9.2478 C   0  0  0  0  0  0
    5.0535   -4.9435    9.8075 O   0  0  0  0  0  0
    5.0152   -2.7185    9.4983 O   0  0  0  0  0  0
    2.2856   -5.4324    7.3312 O   0  0  0  0  0  0
    1.5682   -4.7047    8.2661 C   0  0  0  0  0  0
    1.9072   -4.5417    9.4309 O   0  0  0  0  0  0
    0.2799   -4.1115    7.6806 C   0  0  0  0  0  0
    0.2933   -2.5703    7.4377 C   0  0  0  0  0  0
   -0.2233   -2.0468    6.0851 C   0  0  0  0  0  0
    0.7818   -2.1884    4.9787 C   0  0  0  0  0  0
    0.6564   -2.8934    3.9868 O   0  0  0  0  0  0
    1.8691   -1.4266    5.1725 O   0  0  0  0  0  0
   -0.3926   -1.7460    8.5342 C   0  0  0  0  0  0
   -1.4405   -1.1562    8.3590 O   0  0  0  0  0  0
    0.1891   -1.8023    9.7507 O   0  0  0  0  0  0
    4.7933    1.3008   -0.9291 H   0  0  0  0  0  0
    3.7859    1.8547   -2.0690 H   0  0  0  0  0  0
    3.7994    0.5718   -4.8676 H   0  0  0  0  0  0
    7.6365   -2.4345   -3.4086 H   0  0  0  0  0  0
    4.5897   -6.3928    1.9637 H   0  0  0  0  0  0
    3.2510   -1.8654    6.4492 H   0  0  0  0  0  0
    4.4475   -2.6538   10.3060 H   0  0  0  0  0  0
    2.4248   -1.5201    4.3702 H   0  0  0  0  0  0
   -0.3377   -1.4174   10.4860 H   0  0  0  0  0  0
  1  2  1  0  0  0
  2  3  1  0  0  0
  3  4  1  0  0  0
  4  5  1  0  0  0
  5  6  1  0  0  0
  5  7  1  0  0  0
  7  8  1  0  0  0
  7 39  1  0  0  0
  8  9  1  0  0  0
  8 27  1  0  0  0
  9 10  1  0  0  0
 10 11  1  0  0  0
 10 12  1  0  0  0
 12 13  1  0  0  0
 13 14  1  0  0  0
 13 26  1  0  0  0
 14 15  1  0  0  0
 15 16  1  0  0  0
 16 17  1  0  0  0
 17 18  1  0  0  0
 18 19  1  0  0  0
 18 25  1  0  0  0
 19 20  1  0  0  0
 20 21  1  0  0  0
 20 24  1  0  0  0
 21 22  1  0  0  0
 21 23  1  0  0  0
 23 51  1  0  0  0
 23 52  1  0  0  0
 24 53  1  0  0  0
 25 54  1  0  0  0
 26 55  1  0  0  0
 27 28  1  0  0  0
 28 29  2  0  0  0
 28 30  1  0  0  0
 30 31  1  0  0  0
 31 32  1  0  0  0
 31 36  1  0  0  0
 32 33  1  0  0  0
 33 34  2  0  0  0
 33 35  1  0  0  0
 35 56  1  0  0  0
 36 37  2  0  0  0
 36 38  1  0  0  0
 38 57  1  0  0  0
 39 40  1  0  0  0
 40 41  2  0  0  0
 40 42  1  0  0  0
 42 43  1  0  0  0
 43 44  1  0  0  0
 43 48  1  0  0  0
 44 45  1  0  0  0
 45 46  2  0  0  0
 45 47  1  0  0  0
 47 58  1  0  0  0
 48 49  2  0  0  0
 48 50  1  0  0  0
 50 59  1  0  0  0
M  END
>  <AUTHOR>
    GENERATED BY OPEN BABEL 2.4.1

>  <CHROM.1>
-70.56868545,-110.68208132,172.31341960,164.01879870,98.30453928,63.19860263
59.91518130,68.63095184,91.61361566,-103.45385277,-53.13403436,-139.37544553
-64.11143099,-93.26479283,-90.59124470,-139.92264175,54.06324006,50.90464456
57.98051333,51.66363617,62.52012228,-61.75565047,81.07494539,12.74829875
54.58246258,-65.50773288,164.14659068,-12.18438304,60.46280811,-170.47756533
-168.98456294,29.26870797,-107.05143289,133.20486442,-78.91117410,-110.59962221
115.58500104,-174.94512001,-168.95360629,3.46806645,-3.85702838,4.98678651
1.79169949,-0.73008435,2.07189704

>  <COMPND>
    UNNAMED

>  <MASTER>
        0    0    0    0    0    0    0    0  109    0  109    0

>  <Name>
FB1.pdb

>  <RI>
0

>  <Rbt.Current_Directory>
/home/fc/tossine/FB1_39T3/p3/0_clust01

>  <Rbt.Executable>
rbdock/0.1.0

>  <Rbt.Library>
librxdock.so/0.1.0

>  <Rbt.Parameter_File>
/cluster/rxdock/data/scripts/dock.prm

>  <Rbt.Receptor>
rx_2.prm

>  <SCORE>
22.7218

>  <SCORE.INTER>
10.951

>  <SCORE.INTER.CONST>
1

>  <SCORE.INTER.POLAR>
-1.88614

>  <SCORE.INTER.REPUL>
0.537321

>  <SCORE.INTER.ROT>
32

>  <SCORE.INTER.VDW>
-22.7227

>  <SCORE.INTER.norm>
0.21902

>  <SCORE.INTRA>
11.7708

>  <SCORE.INTRA.DIHEDRAL>
17.6977

>  <SCORE.INTRA.DIHEDRAL.0>
47.3121

>  <SCORE.INTRA.POLAR>
0.857905

>  <SCORE.INTRA.POLAR.0>
-1.47808

>  <SCORE.INTRA.REPUL>
0

>  <SCORE.INTRA.REPUL.0>
0

>  <SCORE.INTRA.VDW>
0.00504566

>  <SCORE.INTRA.VDW.0>
-2.78316

>  <SCORE.INTRA.norm>
0.235416

>  <SCORE.RESTR>
0

>  <SCORE.RESTR.CAVITY>
0

>  <SCORE.RESTR.norm>
0

>  <SCORE.SYSTEM>
0

>  <SCORE.SYSTEM.CONST>
0

>  <SCORE.SYSTEM.DIHEDRAL>
0

>  <SCORE.SYSTEM.norm>
0

>  <SCORE.heavy>
50

>  <SCORE.norm>
0.454436

$$$$
