FB1.pdb
  RxDock  10062022293D
librxdock.so/0.1.0
 59 58  0  0  0  0  0  0  0  0999 V2000
   -1.0770   -2.0526   10.6207 C   0  0  0  0  0  0
    0.3049   -2.6984   10.6883 C   0  0  0  0  0  0
    1.0291   -2.6366    9.3333 C   0  0  0  0  0  0
    0.4352   -3.5954    8.2714 C   0  0  0  0  0  0
    1.1022   -3.5079    6.8543 C   0  0  0  0  0  0
    0.7387   -2.1408    6.2303 C   0  0  0  0  0  0
    2.6745   -3.7198    6.8804 C   0  0  0  0  0  0
    3.2161   -5.1809    6.5089 C   0  0  0  0  0  0
    4.7466   -5.5694    6.3223 C   0  0  0  0  0  0
    5.1764   -6.0028    4.7897 C   0  0  0  0  0  0
    4.8208   -7.4743    4.5840 C   0  0  0  0  0  0
    4.5490   -5.1309    3.6103 C   0  0  0  0  0  0
    4.7980   -5.4186    2.0375 C   0  0  0  0  0  0
    3.6706   -5.2446    0.9628 C   0  0  0  0  0  0
    2.2676   -4.6410    1.4279 C   0  0  0  0  0  0
    1.0596   -4.3476    0.4536 C   0  0  0  0  0  0
    1.1864   -4.7054   -1.0508 C   0  0  0  0  0  0
    1.4392   -6.2240   -1.3960 C   0  0  0  0  0  0
    0.2285   -7.0154   -1.9064 C   0  0  0  0  0  0
   -0.5233   -6.4855   -3.1603 C   0  0  0  0  0  0
   -1.6286   -7.3450   -3.8422 C   0  0  0  0  0  0
   -2.3671   -8.3319   -2.9488 C   0  0  0  0  0  0
   -2.5775   -6.4907   -4.5813 N   0  0  0  0  0  0
   -1.2062   -5.2908   -2.7019 O   0  0  0  0  0  0
    2.4727   -6.2861   -2.3847 O   0  0  0  0  0  0
    5.8298   -4.4949    1.6517 O   0  0  0  0  0  0
    2.7453   -6.0680    7.5595 O   0  0  0  0  0  0
    3.4045   -6.0229    8.7464 C   0  0  0  0  0  0
    4.1956   -5.1686    9.0979 O   0  0  0  0  0  0
    2.9169   -7.1571    9.6050 C   0  0  0  0  0  0
    3.5962   -7.1883   10.9835 C   0  0  0  0  0  0
    2.9615   -6.2045   11.9748 C   0  0  0  0  0  0
    1.4534   -6.2396   11.8876 C   0  0  0  0  0  0
    0.8019   -5.5400   11.1197 O   0  0  0  0  0  0
    0.8895   -7.1148   12.7332 O   0  0  0  0  0  0
    3.4408   -8.6261   11.4979 C   0  0  0  0  0  0
    4.3801   -9.2954   11.9007 O   0  0  0  0  0  0
    2.1927   -9.1083   11.4234 O   0  0  0  0  0  0
    3.3705   -2.6588    6.1124 O   0  0  0  0  0  0
    3.7063   -1.4848    6.7657 C   0  0  0  0  0  0
    3.2481   -1.1329    7.8449 O   0  0  0  0  0  0
    4.7323   -0.6542    5.9835 C   0  0  0  0  0  0
    4.3011   -0.2226    4.5475 C   0  0  0  0  0  0
    5.0931    0.9064    3.8631 C   0  0  0  0  0  0
    4.8575    2.2508    4.4887 C   0  0  0  0  0  0
    4.8019    3.3164    3.8904 O   0  0  0  0  0  0
    4.6872    2.1757    5.8175 O   0  0  0  0  0  0
    4.1932   -1.3748    3.5408 C   0  0  0  0  0  0
    3.6327   -2.4227    3.7944 O   0  0  0  0  0  0
    4.6707   -1.1121    2.3062 O   0  0  0  0  0  0
   -2.6211   -6.8011   -5.5509 H   0  0  0  0  0  0
   -2.1974   -5.5425   -4.6251 H   0  0  0  0  0  0
   -1.7073   -5.5813   -1.9108 H   0  0  0  0  0  0
    2.1266   -6.7707   -3.1566 H   0  0  0  0  0  0
    6.4848   -4.9798    1.1222 H   0  0  0  0  0  0
    1.5136   -7.6093   13.2984 H   0  0  0  0  0  0
    1.5293   -8.4738   11.0544 H   0  0  0  0  0  0
    4.6508    3.0977    6.1490 H   0  0  0  0  0  0
    4.6401   -1.8653    1.6754 H   0  0  0  0  0  0
  1  2  1  0  0  0
  2  3  1  0  0  0
  3  4  1  0  0  0
  4  5  1  0  0  0
  5  6  1  0  0  0
  5  7  1  0  0  0
  7  8  1  0  0  0
  7 39  1  0  0  0
  8  9  1  0  0  0
  8 27  1  0  0  0
  9 10  1  0  0  0
 10 11  1  0  0  0
 10 12  1  0  0  0
 12 13  1  0  0  0
 13 14  1  0  0  0
 13 26  1  0  0  0
 14 15  1  0  0  0
 15 16  1  0  0  0
 16 17  1  0  0  0
 17 18  1  0  0  0
 18 19  1  0  0  0
 18 25  1  0  0  0
 19 20  1  0  0  0
 20 21  1  0  0  0
 20 24  1  0  0  0
 21 22  1  0  0  0
 21 23  1  0  0  0
 23 51  1  0  0  0
 23 52  1  0  0  0
 24 53  1  0  0  0
 25 54  1  0  0  0
 26 55  1  0  0  0
 27 28  1  0  0  0
 28 29  2  0  0  0
 28 30  1  0  0  0
 30 31  1  0  0  0
 31 32  1  0  0  0
 31 36  1  0  0  0
 32 33  1  0  0  0
 33 34  2  0  0  0
 33 35  1  0  0  0
 35 56  1  0  0  0
 36 37  2  0  0  0
 36 38  1  0  0  0
 38 57  1  0  0  0
 39 40  1  0  0  0
 40 41  2  0  0  0
 40 42  1  0  0  0
 42 43  1  0  0  0
 43 44  1  0  0  0
 43 48  1  0  0  0
 44 45  1  0  0  0
 45 46  2  0  0  0
 45 47  1  0  0  0
 47 58  1  0  0  0
 48 49  2  0  0  0
 48 50  1  0  0  0
 50 59  1  0  0  0
M  END
>  <AUTHOR>
    GENERATED BY OPEN BABEL 2.4.1

>  <CHROM.1>
-72.00414425,177.05698687,-68.68761006,98.55304946,173.10839631,87.41367380
-113.82099877,-76.76874796,-82.80270162,-177.75110922,141.88673466,5.41042922
134.35509241,177.20978016,2.44910728,60.20525107,102.90255142,56.20587933
-123.47657589,171.37409084,27.24073578,-52.63609805,124.37110691,13.29470614
-179.50137807,81.37191604,42.91377242,128.04997370,-88.63074840,0.47752342
-0.54159241,-15.44256578,58.76950885,163.77834122,-70.14094180,46.14864103
-144.00594813,173.25576154,177.18257877,2.51915035,-4.36242779,5.06886514
-1.18389655,-1.16953115,-1.22323605

>  <COMPND>
    UNNAMED

>  <MASTER>
        0    0    0    0    0    0    0    0  109    0  109    0

>  <Name>
FB1.pdb

>  <RI>
0

>  <Rbt.Current_Directory>
/cluster/tossine/FB1_39T3/p3/0_clust01

>  <Rbt.Executable>
rbdock/0.1.0

>  <Rbt.Library>
librxdock.so/0.1.0

>  <Rbt.Parameter_File>
/cluster/rxdock/data/scripts/dock.prm

>  <Rbt.Receptor>
rx_0.prm

>  <SCORE>
32.0246

>  <SCORE.INTER>
4.76562

>  <SCORE.INTER.CONST>
1

>  <SCORE.INTER.POLAR>
-2.59865

>  <SCORE.INTER.REPUL>
0.550685

>  <SCORE.INTER.ROT>
32

>  <SCORE.INTER.VDW>
-26.5524

>  <SCORE.INTER.norm>
0.0953123

>  <SCORE.INTRA>
26.2692

>  <SCORE.INTRA.DIHEDRAL>
27.8295

>  <SCORE.INTRA.DIHEDRAL.0>
47.3121

>  <SCORE.INTRA.POLAR>
1.44724

>  <SCORE.INTRA.POLAR.0>
-1.47808

>  <SCORE.INTRA.REPUL>
0

>  <SCORE.INTRA.REPUL.0>
0

>  <SCORE.INTRA.VDW>
7.43387

>  <SCORE.INTRA.VDW.0>
-2.78316

>  <SCORE.INTRA.norm>
0.525384

>  <SCORE.RESTR>
0.989824

>  <SCORE.RESTR.CAVITY>
0.989824

>  <SCORE.RESTR.norm>
0.0197965

>  <SCORE.SYSTEM>
0

>  <SCORE.SYSTEM.CONST>
0

>  <SCORE.SYSTEM.DIHEDRAL>
0

>  <SCORE.SYSTEM.norm>
0

>  <SCORE.heavy>
50

>  <SCORE.norm>
0.640493

$$$$
