FB1.pdb
  RxDock  10072000263D
librxdock.so/0.1.0
 59 58  0  0  0  0  0  0  0  0999 V2000
    6.8049   -7.6628    9.2334 C   0  0  0  0  0  0
    5.4359   -6.9938    9.3316 C   0  0  0  0  0  0
    5.5579   -5.4813    9.5802 C   0  0  0  0  0  0
    4.3590   -4.6669    9.0333 C   0  0  0  0  0  0
    4.3618   -4.4475    7.4801 C   0  0  0  0  0  0
    4.0226   -5.7935    6.7990 C   0  0  0  0  0  0
    3.3722   -3.3035    7.0004 C   0  0  0  0  0  0
    3.3728   -2.9518    5.4376 C   0  0  0  0  0  0
    2.0913   -2.9644    4.4964 C   0  0  0  0  0  0
    1.9987   -4.2428    3.4579 C   0  0  0  0  0  0
    0.6904   -4.1387    2.6758 C   0  0  0  0  0  0
    3.2170   -4.4132    2.4422 C   0  0  0  0  0  0
    3.6716   -3.2867    1.3731 C   0  0  0  0  0  0
    5.1257   -3.2177    0.7925 C   0  0  0  0  0  0
    5.5544   -1.9139   -0.0233 C   0  0  0  0  0  0
    7.0500   -1.4623   -0.2548 C   0  0  0  0  0  0
    7.4628    0.0018    0.0513 C   0  0  0  0  0  0
    6.7501    1.1272   -0.7942 C   0  0  0  0  0  0
    6.7677    2.5397   -0.1967 C   0  0  0  0  0  0
    6.7219    3.7523   -1.1691 C   0  0  0  0  0  0
    8.0328    4.3174   -1.7917 C   0  0  0  0  0  0
    8.7622    5.3819   -0.9841 C   0  0  0  0  0  0
    8.9479    3.2244   -2.1716 N   0  0  0  0  0  0
    5.9394    3.2881   -2.2989 O   0  0  0  0  0  0
    7.3711    1.1710   -2.0835 O   0  0  0  0  0  0
    2.8217   -3.4952    0.2325 O   0  0  0  0  0  0
    3.8877   -1.5973    5.3261 O   0  0  0  0  0  0
    5.1559   -1.3816    5.7625 C   0  0  0  0  0  0
    5.8528   -2.1735    6.3680 O   0  0  0  0  0  0
    5.6005   -0.0274    5.2829 C   0  0  0  0  0  0
    4.4451    0.8003    4.6978 C   0  0  0  0  0  0
    4.0940    2.0162    5.5647 C   0  0  0  0  0  0
    3.3201    1.6032    6.7951 C   0  0  0  0  0  0
    3.3717    0.4796    7.2835 O   0  0  0  0  0  0
    2.5673    2.5875    7.3082 O   0  0  0  0  0  0
    4.9164    1.2618    3.3119 C   0  0  0  0  0  0
    5.7281    0.6409    2.6425 O   0  0  0  0  0  0
    4.4004    2.4328    2.9138 O   0  0  0  0  0  0
    2.0006   -3.5307    7.5170 O   0  0  0  0  0  0
    1.4249   -2.5527    8.3109 C   0  0  0  0  0  0
    1.1564   -1.4193    7.9347 O   0  0  0  0  0  0
    1.1521   -3.0452    9.7382 C   0  0  0  0  0  0
    0.4383   -4.4279    9.8529 C   0  0  0  0  0  0
   -0.5147   -4.8462    8.7183 C   0  0  0  0  0  0
   -1.3011   -6.0844    9.0394 C   0  0  0  0  0  0
   -1.0509   -6.8755    9.9384 O   0  0  0  0  0  0
   -2.3595   -6.2443    8.2303 O   0  0  0  0  0  0
    1.3785   -5.6112   10.1139 C   0  0  0  0  0  0
    1.7594   -6.3584    9.2345 O   0  0  0  0  0  0
    1.8479   -5.7109   11.3753 O   0  0  0  0  0  0
    9.4701    3.4995   -3.0023 H   0  0  0  0  0  0
    8.3906    2.4191   -2.4654 H   0  0  0  0  0  0
    6.4431    2.5239   -2.6504 H   0  0  0  0  0  0
    7.4751    0.2556   -2.4023 H   0  0  0  0  0  0
    1.9037   -3.3347    0.5082 H   0  0  0  0  0  0
    2.0677    2.3531    8.1138 H   0  0  0  0  0  0
    3.5690    2.6947    3.3818 H   0  0  0  0  0  0
   -2.7848   -7.0895    8.4872 H   0  0  0  0  0  0
    2.4515   -6.4691   11.5397 H   0  0  0  0  0  0
  1  2  1  0  0  0
  2  3  1  0  0  0
  3  4  1  0  0  0
  4  5  1  0  0  0
  5  6  1  0  0  0
  5  7  1  0  0  0
  7  8  1  0  0  0
  7 39  1  0  0  0
  8  9  1  0  0  0
  8 27  1  0  0  0
  9 10  1  0  0  0
 10 11  1  0  0  0
 10 12  1  0  0  0
 12 13  1  0  0  0
 13 14  1  0  0  0
 13 26  1  0  0  0
 14 15  1  0  0  0
 15 16  1  0  0  0
 16 17  1  0  0  0
 17 18  1  0  0  0
 18 19  1  0  0  0
 18 25  1  0  0  0
 19 20  1  0  0  0
 20 21  1  0  0  0
 20 24  1  0  0  0
 21 22  1  0  0  0
 21 23  1  0  0  0
 23 51  1  0  0  0
 23 52  1  0  0  0
 24 53  1  0  0  0
 25 54  1  0  0  0
 26 55  1  0  0  0
 27 28  1  0  0  0
 28 29  2  0  0  0
 28 30  1  0  0  0
 30 31  1  0  0  0
 31 32  1  0  0  0
 31 36  1  0  0  0
 32 33  1  0  0  0
 33 34  2  0  0  0
 33 35  1  0  0  0
 35 56  1  0  0  0
 36 37  2  0  0  0
 36 38  1  0  0  0
 38 57  1  0  0  0
 39 40  1  0  0  0
 40 41  2  0  0  0
 40 42  1  0  0  0
 42 43  1  0  0  0
 43 44  1  0  0  0
 43 48  1  0  0  0
 44 45  1  0  0  0
 45 46  2  0  0  0
 45 47  1  0  0  0
 47 58  1  0  0  0
 48 49  2  0  0  0
 48 50  1  0  0  0
 50 59  1  0  0  0
M  END
>  <AUTHOR>
    GENERATED BY OPEN BABEL 2.4.1

>  <CHROM.1>
152.24643791,-76.76011523,72.08725802,176.52508024,124.70589472,121.06206562
-105.66662571,61.72516868,177.54867177,-58.66221674,156.11580495,-168.09355754
62.99025533,158.81858221,-130.15902539,-61.98083738,159.42673173,151.63961348
45.00851115,-86.00417286,-88.01158900,-60.39381635,146.76562870,-8.47530571
10.84654251,111.93461584,-75.84799745,27.49286990,23.89385597,-178.97709161
-20.47834012,64.03331747,-47.88518501,-29.49441389,-170.95831184,-99.23108096
-15.57826634,177.61431974,-179.89703061,3.90407580,-1.90104205,4.78945872
-2.99173206,1.15673924,0.49386062

>  <COMPND>
    UNNAMED

>  <MASTER>
        0    0    0    0    0    0    0    0  109    0  109    0

>  <Name>
FB1.pdb

>  <RI>
0

>  <Rbt.Current_Directory>
/cluster/tossine/FB1_39T3/p3/0_clust01

>  <Rbt.Executable>
rbdock/0.1.0

>  <Rbt.Library>
librxdock.so/0.1.0

>  <Rbt.Parameter_File>
/cluster/rxdock/data/scripts/dock.prm

>  <Rbt.Receptor>
rx_3.prm

>  <SCORE>
16.9454

>  <SCORE.INTER>
-2.07309

>  <SCORE.INTER.CONST>
1

>  <SCORE.INTER.POLAR>
-1.47285

>  <SCORE.INTER.REPUL>
0.101326

>  <SCORE.INTER.ROT>
32

>  <SCORE.INTER.VDW>
-34.972

>  <SCORE.INTER.norm>
-0.0414618

>  <SCORE.INTRA>
19.0093

>  <SCORE.INTRA.DIHEDRAL>
38.6191

>  <SCORE.INTRA.DIHEDRAL.0>
47.3121

>  <SCORE.INTRA.POLAR>
-0.312768

>  <SCORE.INTRA.POLAR.0>
-1.47808

>  <SCORE.INTRA.REPUL>
0.0021324

>  <SCORE.INTRA.REPUL.0>
0

>  <SCORE.INTRA.VDW>
0.752522

>  <SCORE.INTRA.VDW.0>
-2.78316

>  <SCORE.INTRA.norm>
0.380187

>  <SCORE.RESTR>
0.00918116

>  <SCORE.RESTR.CAVITY>
0.00918116

>  <SCORE.RESTR.norm>
0.000183623

>  <SCORE.SYSTEM>
0

>  <SCORE.SYSTEM.CONST>
0

>  <SCORE.SYSTEM.DIHEDRAL>
0

>  <SCORE.SYSTEM.norm>
0

>  <SCORE.heavy>
50

>  <SCORE.norm>
0.338909

$$$$
