FB1.pdb
  RxDock  10072001103D
librxdock.so/0.1.0
 59 58  0  0  0  0  0  0  0  0999 V2000
    5.4176  -11.3268    9.9869 C   0  0  0  0  0  0
    6.5546  -10.5117   10.5989 C   0  0  0  0  0  0
    6.4210   -9.0148   10.2740 C   0  0  0  0  0  0
    6.4780   -8.7045    8.7574 C   0  0  0  0  0  0
    6.3747   -7.1833    8.3890 C   0  0  0  0  0  0
    6.4722   -7.0482    6.8519 C   0  0  0  0  0  0
    5.0586   -6.4869    8.9375 C   0  0  0  0  0  0
    4.5211   -5.2125    8.1292 C   0  0  0  0  0  0
    5.4178   -3.9933    7.6416 C   0  0  0  0  0  0
    5.0194   -2.5292    8.2889 C   0  0  0  0  0  0
    5.8583   -2.3106    9.5469 C   0  0  0  0  0  0
    5.1673   -1.2692    7.3217 C   0  0  0  0  0  0
    4.7871    0.2467    7.7414 C   0  0  0  0  0  0
    4.8850    1.4460    6.7374 C   0  0  0  0  0  0
    4.6512    1.1552    5.1850 C   0  0  0  0  0  0
    3.8904    2.1306    4.2029 C   0  0  0  0  0  0
    4.5508    2.5278    2.8562 C   0  0  0  0  0  0
    5.6796    3.6281    2.9214 C   0  0  0  0  0  0
    5.9786    4.3729    1.6144 C   0  0  0  0  0  0
    6.5508    3.5614    0.4176 C   0  0  0  0  0  0
    5.6128    3.0639   -0.7218 C   0  0  0  0  0  0
    6.2866    2.6554   -2.0243 C   0  0  0  0  0  0
    4.7149    1.9989   -0.2360 N   0  0  0  0  0  0
    7.4803    4.4672   -0.2299 O   0  0  0  0  0  0
    5.3046    4.5873    3.9159 O   0  0  0  0  0  0
    3.4021    0.1883    8.1223 O   0  0  0  0  0  0
    3.9211   -5.7281    6.9099 O   0  0  0  0  0  0
    3.0358   -4.9214    6.2691 C   0  0  0  0  0  0
    2.6412   -3.8372    6.6541 O   0  0  0  0  0  0
    2.6956   -5.5458    4.9440 C   0  0  0  0  0  0
    3.3929   -4.8471    3.7658 C   0  0  0  0  0  0
    3.4654   -5.7330    2.5155 C   0  0  0  0  0  0
    4.0911   -4.9911    1.3573 C   0  0  0  0  0  0
    3.5723   -4.9011    0.2498 O   0  0  0  0  0  0
    5.2743   -4.4346    1.6558 O   0  0  0  0  0  0
    2.5641   -3.5893    3.4710 C   0  0  0  0  0  0
    1.7679   -3.5165    2.5473 O   0  0  0  0  0  0
    2.8215   -2.5546    4.2828 O   0  0  0  0  0  0
    3.9864   -7.4830    9.1785 O   0  0  0  0  0  0
    2.8246   -7.0624    9.8042 C   0  0  0  0  0  0
    2.6452   -5.9397   10.2578 O   0  0  0  0  0  0
    1.7641   -8.1693    9.8714 C   0  0  0  0  0  0
    1.0456   -8.3363   11.2463 C   0  0  0  0  0  0
   -0.2571   -9.1559   11.2867 C   0  0  0  0  0  0
   -1.3991   -8.4772   10.5869 C   0  0  0  0  0  0
   -2.4239   -8.0738   11.1194 O   0  0  0  0  0  0
   -1.1795   -8.3287    9.2716 O   0  0  0  0  0  0
    1.9432   -8.8566   12.3758 C   0  0  0  0  0  0
    2.8992   -9.5805   12.1792 O   0  0  0  0  0  0
    1.6683   -8.3709   13.6046 O   0  0  0  0  0  0
    5.2533    1.1445   -0.0995 H   0  0  0  0  0  0
    4.0457    1.7733   -0.9754 H   0  0  0  0  0  0
    6.9737    5.2984   -0.3469 H   0  0  0  0  0  0
    4.4083    4.9085    3.7060 H   0  0  0  0  0  0
    3.1342    1.0742    8.4189 H   0  0  0  0  0  0
    5.7035   -4.7765    2.4635 H   0  0  0  0  0  0
    3.4697   -2.7506    5.0040 H   0  0  0  0  0  0
   -2.0209   -8.0126    8.8798 H   0  0  0  0  0  0
    0.9235   -7.7308   13.6460 H   0  0  0  0  0  0
  1  2  1  0  0  0
  2  3  1  0  0  0
  3  4  1  0  0  0
  4  5  1  0  0  0
  5  6  1  0  0  0
  5  7  1  0  0  0
  7  8  1  0  0  0
  7 39  1  0  0  0
  8  9  1  0  0  0
  8 27  1  0  0  0
  9 10  1  0  0  0
 10 11  1  0  0  0
 10 12  1  0  0  0
 12 13  1  0  0  0
 13 14  1  0  0  0
 13 26  1  0  0  0
 14 15  1  0  0  0
 15 16  1  0  0  0
 16 17  1  0  0  0
 17 18  1  0  0  0
 18 19  1  0  0  0
 18 25  1  0  0  0
 19 20  1  0  0  0
 20 21  1  0  0  0
 20 24  1  0  0  0
 21 22  1  0  0  0
 21 23  1  0  0  0
 23 51  1  0  0  0
 23 52  1  0  0  0
 24 53  1  0  0  0
 25 54  1  0  0  0
 26 55  1  0  0  0
 27 28  1  0  0  0
 28 29  2  0  0  0
 28 30  1  0  0  0
 30 31  1  0  0  0
 31 32  1  0  0  0
 31 36  1  0  0  0
 32 33  1  0  0  0
 33 34  2  0  0  0
 33 35  1  0  0  0
 35 56  1  0  0  0
 36 37  2  0  0  0
 36 38  1  0  0  0
 38 57  1  0  0  0
 39 40  1  0  0  0
 40 41  2  0  0  0
 40 42  1  0  0  0
 42 43  1  0  0  0
 43 44  1  0  0  0
 43 48  1  0  0  0
 44 45  1  0  0  0
 45 46  2  0  0  0
 45 47  1  0  0  0
 47 58  1  0  0  0
 48 49  2  0  0  0
 48 50  1  0  0  0
 50 59  1  0  0  0
M  END
>  <AUTHOR>
    GENERATED BY OPEN BABEL 2.4.1

>  <CHROM.1>
-61.56120991,-178.79009593,179.01947126,-153.45822716,-46.92663284,172.61265375
-117.76911293,159.67776233,92.15023010,178.04360573,-177.07771486,30.14240817
177.75302685,142.06148800,129.51298197,-78.13599780,-159.03730403,-64.28402426
-53.84763556,98.33999442,162.41401233,-49.78786787,-72.51865876,-4.22303095
-104.16641367,159.74117350,177.05133791,-101.52871279,-127.60808745,16.86438791
-3.71140555,-5.06870007,134.76888249,164.41466368,-68.91241007,-29.12408323
-115.07291937,171.27424692,-0.27270962,3.88903883,-3.80283498,6.38884537
-3.08513491,1.36841349,0.82022396

>  <COMPND>
    UNNAMED

>  <MASTER>
        0    0    0    0    0    0    0    0  109    0  109    0

>  <Name>
FB1.pdb

>  <RI>
0

>  <Rbt.Current_Directory>
/cluster/tossine/FB1_39T3/p3/0_clust01

>  <Rbt.Executable>
rbdock/0.1.0

>  <Rbt.Library>
librxdock.so/0.1.0

>  <Rbt.Parameter_File>
/cluster/rxdock/data/scripts/dock.prm

>  <Rbt.Receptor>
rx_4.prm

>  <SCORE>
3.21626

>  <SCORE.INTER>
-6.95571

>  <SCORE.INTER.CONST>
1

>  <SCORE.INTER.POLAR>
-2.90233

>  <SCORE.INTER.REPUL>
0.287254

>  <SCORE.INTER.ROT>
32

>  <SCORE.INTER.VDW>
-35.9241

>  <SCORE.INTER.norm>
-0.139114

>  <SCORE.INTRA>
10.0909

>  <SCORE.INTRA.DIHEDRAL>
7.67457

>  <SCORE.INTRA.DIHEDRAL.0>
47.3121

>  <SCORE.INTRA.POLAR>
1.47808

>  <SCORE.INTRA.POLAR.0>
-1.47808

>  <SCORE.INTRA.REPUL>
0.028733

>  <SCORE.INTRA.REPUL.0>
0

>  <SCORE.INTRA.VDW>
1.08451

>  <SCORE.INTRA.VDW.0>
-2.78316

>  <SCORE.INTRA.norm>
0.201819

>  <SCORE.RESTR>
0.0810506

>  <SCORE.RESTR.CAVITY>
0.0810506

>  <SCORE.RESTR.norm>
0.00162101

>  <SCORE.SYSTEM>
0

>  <SCORE.SYSTEM.CONST>
0

>  <SCORE.SYSTEM.DIHEDRAL>
0

>  <SCORE.SYSTEM.norm>
0

>  <SCORE.heavy>
50

>  <SCORE.norm>
0.0643252

$$$$
