FB1.pdb
  RxDock  10062023133D
librxdock.so/0.1.0
 59 58  0  0  0  0  0  0  0  0999 V2000
    2.3889    3.4078    8.4246 C   0  0  0  0  0  0
    2.2755    2.1812    7.5223 C   0  0  0  0  0  0
    3.1367    2.3240    6.2565 C   0  0  0  0  0  0
    3.3140    0.9969    5.4773 C   0  0  0  0  0  0
    4.7848    0.4547    5.4201 C   0  0  0  0  0  0
    5.3805    0.5155    6.8456 C   0  0  0  0  0  0
    4.8968   -1.0100    4.8202 C   0  0  0  0  0  0
    4.2733   -2.2008    5.6916 C   0  0  0  0  0  0
    5.0790   -3.0903    6.7346 C   0  0  0  0  0  0
    6.1449   -4.1578    6.0671 C   0  0  0  0  0  0
    7.1688   -4.5502    7.1310 C   0  0  0  0  0  0
    5.5125   -5.4728    5.4226 C   0  0  0  0  0  0
    4.4696   -5.4658    4.1852 C   0  0  0  0  0  0
    3.0288   -4.8609    4.3043 C   0  0  0  0  0  0
    2.0508   -5.4482    5.4214 C   0  0  0  0  0  0
    2.5209   -6.3538    6.6270 C   0  0  0  0  0  0
    1.4632   -6.9518    7.5919 C   0  0  0  0  0  0
    0.6740   -5.9277    8.4961 C   0  0  0  0  0  0
    1.5179   -4.8764    9.2275 C   0  0  0  0  0  0
    1.9113   -5.1462   10.7076 C   0  0  0  0  0  0
    2.2929   -6.5817   11.1759 C   0  0  0  0  0  0
    3.6367   -7.1150   10.6992 C   0  0  0  0  0  0
    2.1648   -6.7081   12.6402 N   0  0  0  0  0  0
    3.1058   -4.3516   10.9213 O   0  0  0  0  0  0
   -0.2786   -5.2509    7.6688 O   0  0  0  0  0  0
    5.1173   -4.6933    3.1604 O   0  0  0  0  0  0
    3.1995   -1.6122    6.4746 O   0  0  0  0  0  0
    1.9578   -2.1387    6.3126 C   0  0  0  0  0  0
    1.4700   -2.5224    5.2666 O   0  0  0  0  0  0
    1.3143   -2.2656    7.6658 C   0  0  0  0  0  0
    0.6548   -0.9574    8.1308 C   0  0  0  0  0  0
   -0.7607   -1.1749    8.6807 C   0  0  0  0  0  0
   -0.7274   -1.9330    9.9874 C   0  0  0  0  0  0
   -0.6381   -1.3912   11.0839 O   0  0  0  0  0  0
   -0.8069   -3.2632    9.8356 O   0  0  0  0  0  0
    1.5649   -0.3940    9.2310 C   0  0  0  0  0  0
    1.1421    0.0157   10.3014 O   0  0  0  0  0  0
    2.8629   -0.3416    8.9020 O   0  0  0  0  0  0
    4.4296   -1.0495    3.4130 O   0  0  0  0  0  0
    5.1176   -0.3055    2.4690 C   0  0  0  0  0  0
    5.6698    0.7638    2.6926 O   0  0  0  0  0  0
    5.1176   -0.9723    1.0871 C   0  0  0  0  0  0
    5.6496   -0.0949   -0.0884 C   0  0  0  0  0  0
    4.7464    1.0361   -0.6131 C   0  0  0  0  0  0
    5.1603    1.5371   -1.9667 C   0  0  0  0  0  0
    4.4443    1.5912   -2.9572 O   0  0  0  0  0  0
    6.4347    1.9560   -1.9912 O   0  0  0  0  0  0
    7.0407    0.5076    0.1446 C   0  0  0  0  0  0
    8.0679   -0.0653   -0.1606 O   0  0  0  0  0  0
    7.0528    1.7718    0.6169 O   0  0  0  0  0  0
    1.2648   -6.3285   12.9308 H   0  0  0  0  0  0
    2.8608   -6.1037   13.0824 H   0  0  0  0  0  0
    3.2020   -4.3081   11.8960 H   0  0  0  0  0  0
   -0.8043   -5.9233    7.1976 H   0  0  0  0  0  0
    5.9305   -5.1585    2.9019 H   0  0  0  0  0  0
   -0.8076   -3.5777    8.9112 H   0  0  0  0  0  0
    3.0544   -0.5495    7.9539 H   0  0  0  0  0  0
    6.6107    2.2685   -2.9037 H   0  0  0  0  0  0
    6.1940    2.0973    0.9670 H   0  0  0  0  0  0
  1  2  1  0  0  0
  2  3  1  0  0  0
  3  4  1  0  0  0
  4  5  1  0  0  0
  5  6  1  0  0  0
  5  7  1  0  0  0
  7  8  1  0  0  0
  7 39  1  0  0  0
  8  9  1  0  0  0
  8 27  1  0  0  0
  9 10  1  0  0  0
 10 11  1  0  0  0
 10 12  1  0  0  0
 12 13  1  0  0  0
 13 14  1  0  0  0
 13 26  1  0  0  0
 14 15  1  0  0  0
 15 16  1  0  0  0
 16 17  1  0  0  0
 17 18  1  0  0  0
 18 19  1  0  0  0
 18 25  1  0  0  0
 19 20  1  0  0  0
 20 21  1  0  0  0
 20 24  1  0  0  0
 21 22  1  0  0  0
 21 23  1  0  0  0
 23 51  1  0  0  0
 23 52  1  0  0  0
 24 53  1  0  0  0
 25 54  1  0  0  0
 26 55  1  0  0  0
 27 28  1  0  0  0
 28 29  2  0  0  0
 28 30  1  0  0  0
 30 31  1  0  0  0
 31 32  1  0  0  0
 31 36  1  0  0  0
 32 33  1  0  0  0
 33 34  2  0  0  0
 33 35  1  0  0  0
 35 56  1  0  0  0
 36 37  2  0  0  0
 36 38  1  0  0  0
 38 57  1  0  0  0
 39 40  1  0  0  0
 40 41  2  0  0  0
 40 42  1  0  0  0
 42 43  1  0  0  0
 43 44  1  0  0  0
 43 48  1  0  0  0
 44 45  1  0  0  0
 45 46  2  0  0  0
 45 47  1  0  0  0
 47 58  1  0  0  0
 48 49  2  0  0  0
 48 50  1  0  0  0
 50 59  1  0  0  0
M  END
>  <AUTHOR>
    GENERATED BY OPEN BABEL 2.4.1

>  <CHROM.1>
166.76758270,-115.27329978,47.12117522,-67.81403475,-93.42023483,62.80463765
-71.53314360,121.90231294,159.69513641,61.28672482,-65.93221283,-57.78812430
62.98173847,14.73586393,-175.52801682,-67.00906077,-47.59073542,-97.00435363
52.42173748,38.38134498,71.86077235,163.91791883,47.99401288,-38.36444223
83.75290902,133.04457677,68.67112860,-132.95710425,89.34329213,4.42341709
8.26431430,-32.60406257,169.74732721,-74.22666481,-163.02551478,88.98267950
124.53852016,-179.55184173,14.23793759,3.36669722,-2.02350329,5.87269388
2.40082946,-1.03525561,2.80369370

>  <COMPND>
    UNNAMED

>  <MASTER>
        0    0    0    0    0    0    0    0  109    0  109    0

>  <Name>
FB1.pdb

>  <RI>
0

>  <Rbt.Current_Directory>
/cluster/tossine/FB1_39T3/p3/0_clust01

>  <Rbt.Executable>
rbdock/0.1.0

>  <Rbt.Library>
librxdock.so/0.1.0

>  <Rbt.Parameter_File>
/cluster/rxdock/data/scripts/dock.prm

>  <Rbt.Receptor>
rx_1.prm

>  <SCORE>
14.3522

>  <SCORE.INTER>
6.32879

>  <SCORE.INTER.CONST>
1

>  <SCORE.INTER.POLAR>
-3.43551

>  <SCORE.INTER.REPUL>
0.878325

>  <SCORE.INTER.ROT>
32

>  <SCORE.INTER.VDW>
-23.7821

>  <SCORE.INTER.norm>
0.126576

>  <SCORE.INTRA>
7.97002

>  <SCORE.INTRA.DIHEDRAL>
21.3321

>  <SCORE.INTRA.DIHEDRAL.0>
47.3121

>  <SCORE.INTRA.POLAR>
-0.472813

>  <SCORE.INTRA.POLAR.0>
-1.47808

>  <SCORE.INTRA.REPUL>
0

>  <SCORE.INTRA.REPUL.0>
0

>  <SCORE.INTRA.VDW>
-1.08846

>  <SCORE.INTRA.VDW.0>
-2.78316

>  <SCORE.INTRA.norm>
0.1594

>  <SCORE.RESTR>
0.053354

>  <SCORE.RESTR.CAVITY>
0.053354

>  <SCORE.RESTR.norm>
0.00106708

>  <SCORE.SYSTEM>
0

>  <SCORE.SYSTEM.CONST>
0

>  <SCORE.SYSTEM.DIHEDRAL>
0

>  <SCORE.SYSTEM.norm>
0

>  <SCORE.heavy>
50

>  <SCORE.norm>
0.287043

$$$$
