FB1.pdb
  RxDock  10072000363D
librxdock.so/0.1.0
 59 58  0  0  0  0  0  0  0  0999 V2000
    1.2410   -4.7297   11.2978 C   0  0  0  0  0  0
    0.8949   -3.6240   10.3033 C   0  0  0  0  0  0
    1.1720   -4.0550    8.8536 C   0  0  0  0  0  0
    0.9878   -2.9125    7.8237 C   0  0  0  0  0  0
    1.0088   -3.3657    6.3222 C   0  0  0  0  0  0
    0.4962   -2.1934    5.4540 C   0  0  0  0  0  0
    2.4350   -3.8559    5.8286 C   0  0  0  0  0  0
    3.2116   -2.9075    4.7973 C   0  0  0  0  0  0
    2.7859   -2.6568    3.2860 C   0  0  0  0  0  0
    2.2775   -3.9979    2.4709 C   0  0  0  0  0  0
    0.7916   -4.2063    2.7589 C   0  0  0  0  0  0
    2.5218   -3.9973    0.8945 C   0  0  0  0  0  0
    3.9767   -3.8497    0.2016 C   0  0  0  0  0  0
    4.8514   -2.5579    0.3512 C   0  0  0  0  0  0
    5.9143   -2.2263   -0.7931 C   0  0  0  0  0  0
    7.4091   -1.7958   -0.5198 C   0  0  0  0  0  0
    7.7038   -0.6550    0.4898 C   0  0  0  0  0  0
    7.1196    0.7675    0.1372 C   0  0  0  0  0  0
    6.6949    0.9854   -1.3204 C   0  0  0  0  0  0
    6.2145    2.4023   -1.7445 C   0  0  0  0  0  0
    7.0748    3.6594   -1.4207 C   0  0  0  0  0  0
    6.9466    4.8338   -2.3808 C   0  0  0  0  0  0
    6.8670    4.0934   -0.0261 N   0  0  0  0  0  0
    6.1539    2.3517   -3.1928 O   0  0  0  0  0  0
    5.9867    1.0012    0.9808 O   0  0  0  0  0  0
    4.7669   -4.9061    0.7728 O   0  0  0  0  0  0
    3.2216   -1.5818    5.3929 O   0  0  0  0  0  0
    4.1106   -0.6862    4.8899 C   0  0  0  0  0  0
    4.8814   -0.8776    3.9686 O   0  0  0  0  0  0
    3.9155    0.6266    5.5969 C   0  0  0  0  0  0
    3.8999    0.4766    7.1265 C   0  0  0  0  0  0
    5.2642    0.0604    7.6912 C   0  0  0  0  0  0
    5.1327   -1.1304    8.6120 C   0  0  0  0  0  0
    5.9438   -2.0493    8.6525 O   0  0  0  0  0  0
    4.0395   -1.0879    9.3878 O   0  0  0  0  0  0
    3.4990    1.8506    7.6810 C   0  0  0  0  0  0
    2.6598    2.5640    7.1526 O   0  0  0  0  0  0
    4.1827    2.2286    8.7699 O   0  0  0  0  0  0
    3.2920   -4.2487    6.9737 O   0  0  0  0  0  0
    3.3261   -5.5828    7.3443 C   0  0  0  0  0  0
    2.8002   -6.4932    6.7175 O   0  0  0  0  0  0
    4.1064   -5.8073    8.6461 C   0  0  0  0  0  0
    4.0889   -7.2645    9.2037 C   0  0  0  0  0  0
    5.2777   -7.7225   10.0682 C   0  0  0  0  0  0
    6.3945   -8.3191    9.2611 C   0  0  0  0  0  0
    6.3441   -8.5997    8.0714 O   0  0  0  0  0  0
    7.5074   -8.5086    9.9863 O   0  0  0  0  0  0
    2.8082   -7.6434    9.9575 C   0  0  0  0  0  0
    2.6616   -7.4514   11.1484 O   0  0  0  0  0  0
    1.8012   -8.1111    9.1903 O   0  0  0  0  0  0
    7.1358    3.3377    0.6025 H   0  0  0  0  0  0
    5.8647    4.2220    0.1301 H   0  0  0  0  0  0
    5.4939    1.6533   -3.3878 H   0  0  0  0  0  0
    6.3088    1.1455    1.8896 H   0  0  0  0  0  0
    4.4712   -5.7465    0.3844 H   0  0  0  0  0  0
    3.9349   -1.8398   10.0019 H   0  0  0  0  0  0
    3.9192    3.1099    9.1341 H   0  0  0  0  0  0
    8.1719   -8.9042    9.3836 H   0  0  0  0  0  0
    1.0094   -8.4236    9.6818 H   0  0  0  0  0  0
  1  2  1  0  0  0
  2  3  1  0  0  0
  3  4  1  0  0  0
  4  5  1  0  0  0
  5  6  1  0  0  0
  5  7  1  0  0  0
  7  8  1  0  0  0
  7 39  1  0  0  0
  8  9  1  0  0  0
  8 27  1  0  0  0
  9 10  1  0  0  0
 10 11  1  0  0  0
 10 12  1  0  0  0
 12 13  1  0  0  0
 13 14  1  0  0  0
 13 26  1  0  0  0
 14 15  1  0  0  0
 15 16  1  0  0  0
 16 17  1  0  0  0
 17 18  1  0  0  0
 18 19  1  0  0  0
 18 25  1  0  0  0
 19 20  1  0  0  0
 20 21  1  0  0  0
 20 24  1  0  0  0
 21 22  1  0  0  0
 21 23  1  0  0  0
 23 51  1  0  0  0
 23 52  1  0  0  0
 24 53  1  0  0  0
 25 54  1  0  0  0
 26 55  1  0  0  0
 27 28  1  0  0  0
 28 29  2  0  0  0
 28 30  1  0  0  0
 30 31  1  0  0  0
 31 32  1  0  0  0
 31 36  1  0  0  0
 32 33  1  0  0  0
 33 34  2  0  0  0
 33 35  1  0  0  0
 35 56  1  0  0  0
 36 37  2  0  0  0
 36 38  1  0  0  0
 38 57  1  0  0  0
 39 40  1  0  0  0
 40 41  2  0  0  0
 40 42  1  0  0  0
 42 43  1  0  0  0
 43 44  1  0  0  0
 43 48  1  0  0  0
 44 45  1  0  0  0
 45 46  2  0  0  0
 45 47  1  0  0  0
 47 58  1  0  0  0
 48 49  2  0  0  0
 48 50  1  0  0  0
 50 59  1  0  0  0
M  END
>  <AUTHOR>
    GENERATED BY OPEN BABEL 2.4.1

>  <CHROM.1>
-173.48304198,-169.57322014,167.18784024,-109.36047549,-69.57851088,94.52724561
-41.27904514,163.22277837,84.99455366,58.62981499,-63.74393778,-154.37568390
73.51371841,-133.66765712,-49.79042692,-62.13578103,-17.54584044,-175.41437471
71.05598547,51.03584082,151.02933513,61.23174145,60.00128938,1.65793475,50.16314686
67.48212140,-129.32318456,38.49834939,141.03458925,-179.23309416,-179.40589248
7.42194764,174.84129877,153.02420469,-89.09194036,-88.35118598,-9.51561806
179.53884653,175.10807462,4.18523630,-2.46970370,5.07280015,2.51216522,-1.30309952
3.13984055

>  <COMPND>
    UNNAMED

>  <MASTER>
        0    0    0    0    0    0    0    0  109    0  109    0

>  <Name>
FB1.pdb

>  <RI>
0

>  <Rbt.Current_Directory>
/cluster/tossine/FB1_39T3/p3/0_clust01

>  <Rbt.Executable>
rbdock/0.1.0

>  <Rbt.Library>
librxdock.so/0.1.0

>  <Rbt.Parameter_File>
/cluster/rxdock/data/scripts/dock.prm

>  <Rbt.Receptor>
rx_3.prm

>  <SCORE>
7.11352

>  <SCORE.INTER>
-3.19685

>  <SCORE.INTER.CONST>
1

>  <SCORE.INTER.POLAR>
-2.65478

>  <SCORE.INTER.REPUL>
0.939231

>  <SCORE.INTER.ROT>
32

>  <SCORE.INTER.VDW>
-36.2668

>  <SCORE.INTER.norm>
-0.063937

>  <SCORE.INTRA>
10.3104

>  <SCORE.INTRA.DIHEDRAL>
8.63915

>  <SCORE.INTRA.DIHEDRAL.0>
47.3121

>  <SCORE.INTRA.POLAR>
1.47808

>  <SCORE.INTRA.POLAR.0>
-1.47808

>  <SCORE.INTRA.REPUL>
0

>  <SCORE.INTRA.REPUL.0>
0

>  <SCORE.INTRA.VDW>
0.965331

>  <SCORE.INTRA.VDW.0>
-2.78316

>  <SCORE.INTRA.norm>
0.206207

>  <SCORE.RESTR>
0

>  <SCORE.RESTR.CAVITY>
0

>  <SCORE.RESTR.norm>
0

>  <SCORE.SYSTEM>
0

>  <SCORE.SYSTEM.CONST>
0

>  <SCORE.SYSTEM.DIHEDRAL>
0

>  <SCORE.SYSTEM.norm>
0

>  <SCORE.heavy>
50

>  <SCORE.norm>
0.14227

$$$$
