FB1.pdb
  RxDock  10072000313D
librxdock.so/0.1.0
 59 58  0  0  0  0  0  0  0  0999 V2000
   -1.5300   -6.7230    9.4651 C   0  0  0  0  0  0
   -1.0827   -5.8157    8.3214 C   0  0  0  0  0  0
   -1.2545   -4.3289    8.6736 C   0  0  0  0  0  0
   -0.1892   -3.8026    9.6675 C   0  0  0  0  0  0
    1.2695   -3.7282    9.0957 C   0  0  0  0  0  0
    2.1698   -3.0431   10.1497 C   0  0  0  0  0  0
    1.8588   -5.1411    8.6782 C   0  0  0  0  0  0
    2.8604   -5.1690    7.4283 C   0  0  0  0  0  0
    2.4404   -5.4771    5.9260 C   0  0  0  0  0  0
    3.6943   -5.6076    4.8619 C   0  0  0  0  0  0
    4.4902   -6.8665    5.2022 C   0  0  0  0  0  0
    3.3050   -5.6228    3.3150 C   0  0  0  0  0  0
    2.5569   -4.4054    2.5554 C   0  0  0  0  0  0
    2.8076   -4.0780    1.0434 C   0  0  0  0  0  0
    4.2255   -3.4757    0.6238 C   0  0  0  0  0  0
    4.6031   -3.0314   -0.8440 C   0  0  0  0  0  0
    5.4757   -1.7667   -1.0594 C   0  0  0  0  0  0
    6.4681   -1.3872    0.1069 C   0  0  0  0  0  0
    7.4239   -0.2194   -0.1673 C   0  0  0  0  0  0
    6.8450    1.2239   -0.1634 C   0  0  0  0  0  0
    5.7658    1.6465   -1.2037 C   0  0  0  0  0  0
    5.8886    1.0365   -2.5931 C   0  0  0  0  0  0
    4.4080    1.4524   -0.6607 N   0  0  0  0  0  0
    6.1949    1.3557    1.1265 O   0  0  0  0  0  0
    5.6883   -1.0740    1.2660 O   0  0  0  0  0  0
    1.1568   -4.7190    2.6443 O   0  0  0  0  0  0
    3.4718   -3.8518    7.3680 O   0  0  0  0  0  0
    2.8019   -2.8917    6.6790 C   0  0  0  0  0  0
    1.5967   -2.8211    6.5307 O   0  0  0  0  0  0
    3.7936   -1.8635    6.2091 C   0  0  0  0  0  0
    3.8570   -0.6383    7.1350 C   0  0  0  0  0  0
    2.6160   -0.5101    8.0277 C   0  0  0  0  0  0
    2.6206    0.7987    8.7829 C   0  0  0  0  0  0
    3.5387    1.1577    9.5123 O   0  0  0  0  0  0
    1.5200    1.5374    8.5785 O   0  0  0  0  0  0
    5.1098   -0.8286    8.0013 C   0  0  0  0  0  0
    6.0532   -0.0526    7.9893 O   0  0  0  0  0  0
    5.1069   -1.9470    8.7396 O   0  0  0  0  0  0
    2.4167   -5.8564    9.8516 O   0  0  0  0  0  0
    2.9810   -7.1058    9.6547 C   0  0  0  0  0  0
    2.9231   -7.7390    8.6087 O   0  0  0  0  0  0
    3.7010   -7.6250   10.9062 C   0  0  0  0  0  0
    3.1165   -8.9295   11.5318 C   0  0  0  0  0  0
    1.6013   -8.9879   11.7983 C   0  0  0  0  0  0
    1.1346   -7.9374   12.7642 C   0  0  0  0  0  0
    0.3319   -7.0476   12.5179 O   0  0  0  0  0  0
    1.6852   -8.0771   13.9798 O   0  0  0  0  0  0
    3.4961  -10.2175   10.7908 C   0  0  0  0  0  0
    4.4232  -10.9259   11.1305 O   0  0  0  0  0  0
    2.6639  -10.5777    9.7914 O   0  0  0  0  0  0
    4.4028    1.7090    0.3256 H   0  0  0  0  0  0
    4.1905    0.4534   -0.6741 H   0  0  0  0  0  0
    6.1564    2.3224    1.2857 H   0  0  0  0  0  0
    5.1501   -0.2858    1.0667 H   0  0  0  0  0  0
    0.6593   -3.9930    2.2321 H   0  0  0  0  0  0
    0.8559    1.1397    7.9833 H   0  0  0  0  0  0
    4.3555   -2.5619    8.5496 H   0  0  0  0  0  0
    2.3682   -8.7760   13.9007 H   0  0  0  0  0  0
    1.9296   -9.9499    9.6098 H   0  0  0  0  0  0
  1  2  1  0  0  0
  2  3  1  0  0  0
  3  4  1  0  0  0
  4  5  1  0  0  0
  5  6  1  0  0  0
  5  7  1  0  0  0
  7  8  1  0  0  0
  7 39  1  0  0  0
  8  9  1  0  0  0
  8 27  1  0  0  0
  9 10  1  0  0  0
 10 11  1  0  0  0
 10 12  1  0  0  0
 12 13  1  0  0  0
 13 14  1  0  0  0
 13 26  1  0  0  0
 14 15  1  0  0  0
 15 16  1  0  0  0
 16 17  1  0  0  0
 17 18  1  0  0  0
 18 19  1  0  0  0
 18 25  1  0  0  0
 19 20  1  0  0  0
 20 21  1  0  0  0
 20 24  1  0  0  0
 21 22  1  0  0  0
 21 23  1  0  0  0
 23 51  1  0  0  0
 23 52  1  0  0  0
 24 53  1  0  0  0
 25 54  1  0  0  0
 26 55  1  0  0  0
 27 28  1  0  0  0
 28 29  2  0  0  0
 28 30  1  0  0  0
 30 31  1  0  0  0
 31 32  1  0  0  0
 31 36  1  0  0  0
 32 33  1  0  0  0
 33 34  2  0  0  0
 33 35  1  0  0  0
 35 56  1  0  0  0
 36 37  2  0  0  0
 36 38  1  0  0  0
 38 57  1  0  0  0
 39 40  1  0  0  0
 40 41  2  0  0  0
 40 42  1  0  0  0
 42 43  1  0  0  0
 43 44  1  0  0  0
 43 48  1  0  0  0
 44 45  1  0  0  0
 45 46  2  0  0  0
 45 47  1  0  0  0
 47 58  1  0  0  0
 48 49  2  0  0  0
 48 50  1  0  0  0
 50 59  1  0  0  0
M  END
>  <AUTHOR>
    GENERATED BY OPEN BABEL 2.4.1

>  <CHROM.1>
74.69305078,68.13400997,173.83473327,146.83225503,-94.90845995,-179.54201282
-173.46254438,-86.52651480,67.91006432,61.44018970,148.18457843,-69.71624360
177.63077105,-176.92822451,141.91068885,27.66000158,174.21711443,73.88567826
-63.71770266,-62.79166631,-35.18349372,157.71948510,38.44678665,29.09088696
-97.60616116,-19.13547147,-172.15204654,118.33025104,-55.98874178,0.66223962
7.29753835,-8.69791708,117.08889775,-49.94595733,-60.98578764,96.59469094
118.38330053,7.78814760,3.29159690,3.19748058,-3.81702023,6.41653775,-2.82104286
1.28963467,0.26719894

>  <COMPND>
    UNNAMED

>  <MASTER>
        0    0    0    0    0    0    0    0  109    0  109    0

>  <Name>
FB1.pdb

>  <RI>
0

>  <Rbt.Current_Directory>
/cluster/tossine/FB1_39T3/p3/0_clust01

>  <Rbt.Executable>
rbdock/0.1.0

>  <Rbt.Library>
librxdock.so/0.1.0

>  <Rbt.Parameter_File>
/cluster/rxdock/data/scripts/dock.prm

>  <Rbt.Receptor>
rx_3.prm

>  <SCORE>
9.51056

>  <SCORE.INTER>
0.813277

>  <SCORE.INTER.CONST>
1

>  <SCORE.INTER.POLAR>
-1.41542

>  <SCORE.INTER.REPUL>
0.119322

>  <SCORE.INTER.ROT>
32

>  <SCORE.INTER.VDW>
-32.3709

>  <SCORE.INTER.norm>
0.0162655

>  <SCORE.INTRA>
8.68872

>  <SCORE.INTRA.DIHEDRAL>
4.17442

>  <SCORE.INTRA.DIHEDRAL.0>
47.3121

>  <SCORE.INTRA.POLAR>
0.192987

>  <SCORE.INTRA.POLAR.0>
-1.47808

>  <SCORE.INTRA.REPUL>
0

>  <SCORE.INTRA.REPUL.0>
0

>  <SCORE.INTRA.VDW>
5.94535

>  <SCORE.INTRA.VDW.0>
-2.78316

>  <SCORE.INTRA.norm>
0.173774

>  <SCORE.RESTR>
0.00856167

>  <SCORE.RESTR.CAVITY>
0.00856167

>  <SCORE.RESTR.norm>
0.000171233

>  <SCORE.SYSTEM>
0

>  <SCORE.SYSTEM.CONST>
0

>  <SCORE.SYSTEM.DIHEDRAL>
0

>  <SCORE.SYSTEM.norm>
0

>  <SCORE.heavy>
50

>  <SCORE.norm>
0.190211

$$$$
