FB1.pdb
  RxDock  10062023553D
librxdock.so/0.1.0
 59 58  0  0  0  0  0  0  0  0999 V2000
    6.7971  -10.5691   10.4181 C   0  0  0  0  0  0
    7.4639   -9.2191   10.6715 C   0  0  0  0  0  0
    7.1297   -8.2027    9.5672 C   0  0  0  0  0  0
    5.6297   -7.8195    9.5138 C   0  0  0  0  0  0
    5.2776   -6.6626    8.5149 C   0  0  0  0  0  0
    5.3673   -7.2198    7.0754 C   0  0  0  0  0  0
    3.8579   -6.0058    8.7817 C   0  0  0  0  0  0
    3.2945   -5.0136    7.6573 C   0  0  0  0  0  0
    2.1231   -3.9598    7.8705 C   0  0  0  0  0  0
    0.9879   -4.3922    8.9867 C   0  0  0  0  0  0
    1.6533   -4.4421   10.3611 C   0  0  0  0  0  0
   -0.3151   -3.4744    9.0562 C   0  0  0  0  0  0
   -0.2903   -1.8844    9.3563 C   0  0  0  0  0  0
    0.6558   -1.2469   10.4308 C   0  0  0  0  0  0
    0.4062    0.2723   10.8538 C   0  0  0  0  0  0
    1.3735    1.4666   10.4897 C   0  0  0  0  0  0
    1.6270    1.8183    8.9999 C   0  0  0  0  0  0
    3.1339    1.9634    8.5557 C   0  0  0  0  0  0
    3.3857    2.1338    7.0523 C   0  0  0  0  0  0
    3.5150    0.8551    6.1768 C   0  0  0  0  0  0
    2.4703   -0.2938    6.2948 C   0  0  0  0  0  0
    2.3748   -1.2468    5.1115 C   0  0  0  0  0  0
    2.6462   -1.0366    7.5572 N   0  0  0  0  0  0
    3.3975    1.3308    4.8117 O   0  0  0  0  0  0
    3.6896    3.0912    9.2405 O   0  0  0  0  0  0
    0.0951   -1.2792    8.1106 O   0  0  0  0  0  0
    4.4248   -4.2115    7.2198 O   0  0  0  0  0  0
    5.0555   -3.4670    8.1649 C   0  0  0  0  0  0
    4.5215   -2.7622    9.0001 O   0  0  0  0  0  0
    6.5323   -3.7365    8.0759 C   0  0  0  0  0  0
    7.1079   -3.4172    6.6869 C   0  0  0  0  0  0
    7.5403   -1.9515    6.5517 C   0  0  0  0  0  0
    6.3670   -1.0176    6.7383 C   0  0  0  0  0  0
    6.3601   -0.0889    7.5390 O   0  0  0  0  0  0
    5.3271   -1.3000    5.9398 O   0  0  0  0  0  0
    8.3209   -4.3410    6.5104 C   0  0  0  0  0  0
    8.6046   -5.2277    7.3015 O   0  0  0  0  0  0
    9.0761   -4.0636    5.4387 O   0  0  0  0  0  0
    2.8579   -7.0308    9.1681 O   0  0  0  0  0  0
    2.8926   -7.5318   10.4588 C   0  0  0  0  0  0
    3.5807   -7.0779   11.3637 O   0  0  0  0  0  0
    1.9614   -8.7374   10.6422 C   0  0  0  0  0  0
    2.6061   -9.9975   11.2987 C   0  0  0  0  0  0
    3.3426   -9.8182   12.6388 C   0  0  0  0  0  0
    2.5403   -9.0530   13.6513 C   0  0  0  0  0  0
    1.4634   -8.5102   13.4458 O   0  0  0  0  0  0
    3.1247   -9.0313   14.8589 O   0  0  0  0  0  0
    1.6545  -11.1894   11.4608 C   0  0  0  0  0  0
    1.8920  -12.2906   11.0051 O   0  0  0  0  0  0
    0.5751  -10.9673   12.2399 O   0  0  0  0  0  0
    1.7433   -1.3995    7.8599 H   0  0  0  0  0  0
    2.9235   -0.3775    8.2881 H   0  0  0  0  0  0
    4.1325    1.9716    4.7096 H   0  0  0  0  0  0
    4.6369    3.1465    9.0168 H   0  0  0  0  0  0
   -0.1056   -0.3298    8.1628 H   0  0  0  0  0  0
    5.4861   -2.0036    5.2818 H   0  0  0  0  0  0
    9.8620   -4.6540    5.3270 H   0  0  0  0  0  0
    2.4959   -8.5895   15.4678 H   0  0  0  0  0  0
    0.5438  -10.0849   12.6719 H   0  0  0  0  0  0
  1  2  1  0  0  0
  2  3  1  0  0  0
  3  4  1  0  0  0
  4  5  1  0  0  0
  5  6  1  0  0  0
  5  7  1  0  0  0
  7  8  1  0  0  0
  7 39  1  0  0  0
  8  9  1  0  0  0
  8 27  1  0  0  0
  9 10  1  0  0  0
 10 11  1  0  0  0
 10 12  1  0  0  0
 12 13  1  0  0  0
 13 14  1  0  0  0
 13 26  1  0  0  0
 14 15  1  0  0  0
 15 16  1  0  0  0
 16 17  1  0  0  0
 17 18  1  0  0  0
 18 19  1  0  0  0
 18 25  1  0  0  0
 19 20  1  0  0  0
 20 21  1  0  0  0
 20 24  1  0  0  0
 21 22  1  0  0  0
 21 23  1  0  0  0
 23 51  1  0  0  0
 23 52  1  0  0  0
 24 53  1  0  0  0
 25 54  1  0  0  0
 26 55  1  0  0  0
 27 28  1  0  0  0
 28 29  2  0  0  0
 28 30  1  0  0  0
 30 31  1  0  0  0
 31 32  1  0  0  0
 31 36  1  0  0  0
 32 33  1  0  0  0
 33 34  2  0  0  0
 33 35  1  0  0  0
 35 56  1  0  0  0
 36 37  2  0  0  0
 36 38  1  0  0  0
 38 57  1  0  0  0
 39 40  1  0  0  0
 40 41  2  0  0  0
 40 42  1  0  0  0
 42 43  1  0  0  0
 43 44  1  0  0  0
 43 48  1  0  0  0
 44 45  1  0  0  0
 45 46  2  0  0  0
 45 47  1  0  0  0
 47 58  1  0  0  0
 48 49  2  0  0  0
 48 50  1  0  0  0
 50 59  1  0  0  0
M  END
>  <AUTHOR>
    GENERATED BY OPEN BABEL 2.4.1

>  <CHROM.1>
65.18834715,173.14109749,73.41499524,-168.85400244,-162.48597207,76.80451513
-30.34090720,-59.10969667,65.47320750,-58.36485110,-40.70692550,-168.15935773
164.88501172,-110.29495361,61.65994221,-129.88348063,172.49364905,-86.53714206
176.08975541,48.02011352,159.19655816,59.14430169,149.78239685,-46.23706128
58.12026075,87.54013617,-61.38954870,7.33662882,126.75127099,-5.99589085
179.58300057,9.50816181,129.45622497,52.71684657,49.08507327,124.17655016
-6.10321502,-174.72727695,-4.04560056,3.71266214,-4.33616453,8.97584302,-1.59578536
0.50303349,-0.38383879

>  <COMPND>
    UNNAMED

>  <MASTER>
        0    0    0    0    0    0    0    0  109    0  109    0

>  <Name>
FB1.pdb

>  <RI>
0

>  <Rbt.Current_Directory>
/cluster/tossine/FB1_39T3/p3/0_clust01

>  <Rbt.Executable>
rbdock/0.1.0

>  <Rbt.Library>
librxdock.so/0.1.0

>  <Rbt.Parameter_File>
/cluster/rxdock/data/scripts/dock.prm

>  <Rbt.Receptor>
rx_2.prm

>  <SCORE>
3.46655

>  <SCORE.INTER>
0.961652

>  <SCORE.INTER.CONST>
1

>  <SCORE.INTER.POLAR>
-2.12721

>  <SCORE.INTER.REPUL>
0.132887

>  <SCORE.INTER.ROT>
32

>  <SCORE.INTER.VDW>
-29.8703

>  <SCORE.INTER.norm>
0.019233

>  <SCORE.INTRA>
2.48054

>  <SCORE.INTRA.DIHEDRAL>
7.111

>  <SCORE.INTRA.DIHEDRAL.0>
47.3121

>  <SCORE.INTRA.POLAR>
0.478077

>  <SCORE.INTRA.POLAR.0>
-1.47808

>  <SCORE.INTRA.REPUL>
0

>  <SCORE.INTRA.REPUL.0>
0

>  <SCORE.INTRA.VDW>
-2.70042

>  <SCORE.INTRA.VDW.0>
-2.78316

>  <SCORE.INTRA.norm>
0.0496108

>  <SCORE.RESTR>
0.0243635

>  <SCORE.RESTR.CAVITY>
0.0243635

>  <SCORE.RESTR.norm>
0.00048727

>  <SCORE.SYSTEM>
0

>  <SCORE.SYSTEM.CONST>
0

>  <SCORE.SYSTEM.DIHEDRAL>
0

>  <SCORE.SYSTEM.norm>
0

>  <SCORE.heavy>
50

>  <SCORE.norm>
0.0693311

$$$$
