FB1.pdb
  RxDock  10062023553D
librxdock.so/0.1.0
 59 58  0  0  0  0  0  0  0  0999 V2000
    6.0581   -2.5882    9.5714 C   0  0  0  0  0  0
    5.8183   -2.0256    8.1723 C   0  0  0  0  0  0
    5.4124   -0.5432    8.2167 C   0  0  0  0  0  0
    4.1869   -0.2653    9.1226 C   0  0  0  0  0  0
    3.3438    0.9967    8.7264 C   0  0  0  0  0  0
    4.2630    2.2378    8.8014 C   0  0  0  0  0  0
    2.6629    0.8804    7.2979 C   0  0  0  0  0  0
    3.6208    0.5241    6.0642 C   0  0  0  0  0  0
    3.3185   -0.5793    4.9600 C   0  0  0  0  0  0
    2.7961   -2.0303    5.5457 C   0  0  0  0  0  0
    1.2905   -2.1356    5.3082 C   0  0  0  0  0  0
    3.5214   -3.3260    4.9629 C   0  0  0  0  0  0
    4.8752   -3.9630    5.5796 C   0  0  0  0  0  0
    4.8597   -4.9589    6.7896 C   0  0  0  0  0  0
    6.2473   -5.3173    7.4933 C   0  0  0  0  0  0
    6.3875   -6.2595    8.7532 C   0  0  0  0  0  0
    5.9927   -7.7555    8.6369 C   0  0  0  0  0  0
    6.0433   -8.6039    9.9661 C   0  0  0  0  0  0
    4.8556   -8.4398   10.9225 C   0  0  0  0  0  0
    4.4087   -6.9997   11.3028 C   0  0  0  0  0  0
    3.4522   -6.1963   10.3727 C   0  0  0  0  0  0
    2.1309   -6.8647   10.0197 C   0  0  0  0  0  0
    3.2312   -4.8348   10.8960 N   0  0  0  0  0  0
    3.6783   -7.1577   12.5460 O   0  0  0  0  0  0
    6.1487   -9.9852    9.6046 O   0  0  0  0  0  0
    5.4645   -4.6996    4.4949 O   0  0  0  0  0  0
    3.7842    1.7546    5.3081 O   0  0  0  0  0  0
    4.7183    1.7531    4.3219 C   0  0  0  0  0  0
    5.5980    0.9278    4.1654 O   0  0  0  0  0  0
    4.4242    2.8928    3.3859 C   0  0  0  0  0  0
    5.6916    3.6547    2.9669 C   0  0  0  0  0  0
    5.5844    4.2438    1.5545 C   0  0  0  0  0  0
    6.0246    3.2430    0.5116 C   0  0  0  0  0  0
    7.0272    3.3815   -0.1808 O   0  0  0  0  0  0
    5.2120    2.1805    0.4140 O   0  0  0  0  0  0
    5.8654    4.7817    3.9944 C   0  0  0  0  0  0
    6.9048    4.9705    4.6078 O   0  0  0  0  0  0
    4.7635    5.5157    4.2018 O   0  0  0  0  0  0
    1.4686    0.0022    7.3439 O   0  0  0  0  0  0
    1.0080   -0.4196    8.5801 C   0  0  0  0  0  0
    0.4809    0.3074    9.4119 O   0  0  0  0  0  0
    1.2296   -1.9213    8.8043 C   0  0  0  0  0  0
   -0.0620   -2.7752    8.9970 C   0  0  0  0  0  0
    0.0981   -4.2927    9.2020 C   0  0  0  0  0  0
   -0.2567   -5.0903    7.9803 C   0  0  0  0  0  0
   -1.2186   -5.8382    7.8710 O   0  0  0  0  0  0
    0.6008   -4.8878    6.9683 O   0  0  0  0  0  0
   -1.0047   -2.2669   10.0948 C   0  0  0  0  0  0
   -0.6649   -1.4556   10.9333 O   0  0  0  0  0  0
   -2.2802   -2.6992   10.0091 O   0  0  0  0  0  0
    4.1140   -4.3257   10.8860 H   0  0  0  0  0  0
    2.9771   -4.9020   11.8841 H   0  0  0  0  0  0
    4.3689   -7.3487   13.2153 H   0  0  0  0  0  0
    6.3881  -10.4912   10.4029 H   0  0  0  0  0  0
    4.8320   -5.3830    4.2168 H   0  0  0  0  0  0
    4.4600    2.1726    1.0368 H   0  0  0  0  0  0
    4.8653    6.2240    4.8850 H   0  0  0  0  0  0
    1.3147   -4.3123    7.3154 H   0  0  0  0  0  0
   -2.9067   -2.2867   10.6444 H   0  0  0  0  0  0
  1  2  1  0  0  0
  2  3  1  0  0  0
  3  4  1  0  0  0
  4  5  1  0  0  0
  5  6  1  0  0  0
  5  7  1  0  0  0
  7  8  1  0  0  0
  7 39  1  0  0  0
  8  9  1  0  0  0
  8 27  1  0  0  0
  9 10  1  0  0  0
 10 11  1  0  0  0
 10 12  1  0  0  0
 12 13  1  0  0  0
 13 14  1  0  0  0
 13 26  1  0  0  0
 14 15  1  0  0  0
 15 16  1  0  0  0
 16 17  1  0  0  0
 17 18  1  0  0  0
 18 19  1  0  0  0
 18 25  1  0  0  0
 19 20  1  0  0  0
 20 21  1  0  0  0
 20 24  1  0  0  0
 21 22  1  0  0  0
 21 23  1  0  0  0
 23 51  1  0  0  0
 23 52  1  0  0  0
 24 53  1  0  0  0
 25 54  1  0  0  0
 26 55  1  0  0  0
 27 28  1  0  0  0
 28 29  2  0  0  0
 28 30  1  0  0  0
 30 31  1  0  0  0
 31 32  1  0  0  0
 31 36  1  0  0  0
 32 33  1  0  0  0
 33 34  2  0  0  0
 33 35  1  0  0  0
 35 56  1  0  0  0
 36 37  2  0  0  0
 36 38  1  0  0  0
 38 57  1  0  0  0
 39 40  1  0  0  0
 40 41  2  0  0  0
 40 42  1  0  0  0
 42 43  1  0  0  0
 43 44  1  0  0  0
 43 48  1  0  0  0
 44 45  1  0  0  0
 45 46  2  0  0  0
 45 47  1  0  0  0
 47 58  1  0  0  0
 48 49  2  0  0  0
 48 50  1  0  0  0
 50 59  1  0  0  0
M  END
>  <AUTHOR>
    GENERATED BY OPEN BABEL 2.4.1

>  <CHROM.1>
-54.63273837,-153.18660134,-60.00254673,-53.47338476,132.97212296,8.92681446
-46.36079851,170.44571395,104.05127215,87.63919534,84.16615353,-168.84183588
-60.23162942,177.63777708,64.03232977,-174.96806425,79.15017649,-49.63589383
166.98242054,83.74630340,55.21437344,72.62243764,64.13351895,-14.73221246
137.22467226,148.93613614,-87.45147659,127.58021159,-113.23543024,-1.56965485
178.12867662,69.39520149,-117.68128474,178.97571649,-104.41913472,-14.98994353
-112.08022352,5.11539014,-172.73689303,3.57242489,-1.88118900,7.12094942
-1.78522329,0.54160130,-0.49895001

>  <COMPND>
    UNNAMED

>  <MASTER>
        0    0    0    0    0    0    0    0  109    0  109    0

>  <Name>
FB1.pdb

>  <RI>
0

>  <Rbt.Current_Directory>
/cluster/tossine/FB1_39T3/p3/0_clust01

>  <Rbt.Executable>
rbdock/0.1.0

>  <Rbt.Library>
librxdock.so/0.1.0

>  <Rbt.Parameter_File>
/cluster/rxdock/data/scripts/dock.prm

>  <Rbt.Receptor>
rx_2.prm

>  <SCORE>
18.8954

>  <SCORE.INTER>
0.575421

>  <SCORE.INTER.CONST>
1

>  <SCORE.INTER.POLAR>
-1.16573

>  <SCORE.INTER.REPUL>
0.197913

>  <SCORE.INTER.ROT>
32

>  <SCORE.INTER.VDW>
-33.8507

>  <SCORE.INTER.norm>
0.0115084

>  <SCORE.INTRA>
18.1336

>  <SCORE.INTRA.DIHEDRAL>
26.2509

>  <SCORE.INTRA.DIHEDRAL.0>
47.3121

>  <SCORE.INTRA.POLAR>
1.47191

>  <SCORE.INTRA.POLAR.0>
-1.47808

>  <SCORE.INTRA.REPUL>
0

>  <SCORE.INTRA.REPUL.0>
0

>  <SCORE.INTRA.VDW>
0.00364954

>  <SCORE.INTRA.VDW.0>
-2.78316

>  <SCORE.INTRA.norm>
0.362672

>  <SCORE.RESTR>
0.186332

>  <SCORE.RESTR.CAVITY>
0.186332

>  <SCORE.RESTR.norm>
0.00372665

>  <SCORE.SYSTEM>
0

>  <SCORE.SYSTEM.CONST>
0

>  <SCORE.SYSTEM.DIHEDRAL>
0

>  <SCORE.SYSTEM.norm>
0

>  <SCORE.heavy>
50

>  <SCORE.norm>
0.377907

$$$$
