FB1.pdb
  RxDock  09132011253D
librxdock.so/0.1.0
 59 58  0  0  0  0  0  0  0  0999 V2000
    1.6274   -1.1936   10.5278 C   0  0  0  0  0  0
    1.8692   -0.0963    9.4940 C   0  0  0  0  0  0
    3.1943   -0.3043    8.7422 C   0  0  0  0  0  0
    3.1974   -1.5572    7.8313 C   0  0  0  0  0  0
    2.0796   -1.5779    6.7310 C   0  0  0  0  0  0
    2.5488   -0.7028    5.5458 C   0  0  0  0  0  0
    1.6993   -3.0388    6.2420 C   0  0  0  0  0  0
    2.7710   -3.7993    5.3258 C   0  0  0  0  0  0
    3.2137   -3.3461    3.8675 C   0  0  0  0  0  0
    2.4550   -4.1309    2.6306 C   0  0  0  0  0  0
    0.9825   -3.7233    2.6283 C   0  0  0  0  0  0
    3.0725   -3.9132    1.1760 C   0  0  0  0  0  0
    4.4365   -4.6112    0.6552 C   0  0  0  0  0  0
    5.3526   -3.9558   -0.4344 C   0  0  0  0  0  0
    5.1354   -2.4117   -0.7776 C   0  0  0  0  0  0
    5.7303   -1.2204    0.0717 C   0  0  0  0  0  0
    5.5879    0.2347   -0.4478 C   0  0  0  0  0  0
    6.3501    1.3518    0.3648 C   0  0  0  0  0  0
    6.3593    2.7552   -0.2539 C   0  0  0  0  0  0
    7.1148    2.9639   -1.5971 C   0  0  0  0  0  0
    7.0891    4.3467   -2.3129 C   0  0  0  0  0  0
    7.6925    5.5167   -1.5483 C   0  0  0  0  0  0
    7.6658    4.2482   -3.6672 N   0  0  0  0  0  0
    8.5099    2.7343   -1.2736 O   0  0  0  0  0  0
    5.7587    1.4324    1.6662 O   0  0  0  0  0  0
    5.2649   -4.7217    1.8249 O   0  0  0  0  0  0
    4.0095   -3.8257    6.0859 O   0  0  0  0  0  0
    4.8139   -4.9072    5.9172 C   0  0  0  0  0  0
    4.4520   -6.0638    5.8130 O   0  0  0  0  0  0
    6.2325   -4.4282    5.7772 C   0  0  0  0  0  0
    7.0226   -4.5306    7.0917 C   0  0  0  0  0  0
    7.8993   -5.7879    7.1550 C   0  0  0  0  0  0
    7.0795   -7.0362    6.9246 C   0  0  0  0  0  0
    6.6499   -7.3725    5.8264 O   0  0  0  0  0  0
    6.8654   -7.7484    8.0408 O   0  0  0  0  0  0
    7.9014   -3.2738    7.1547 C   0  0  0  0  0  0
    9.1164   -3.3149    7.2758 O   0  0  0  0  0  0
    7.2204   -2.1202    7.1154 O   0  0  0  0  0  0
    1.2417   -3.8803    7.3744 O   0  0  0  0  0  0
    0.9673   -5.2163    7.1340 C   0  0  0  0  0  0
    1.3671   -5.8455    6.1631 O   0  0  0  0  0  0
    0.0942   -5.8396    8.2310 C   0  0  0  0  0  0
    0.1911   -5.1690    9.6366 C   0  0  0  0  0  0
   -0.8737   -5.5339   10.6870 C   0  0  0  0  0  0
   -0.7562   -4.7252   11.9467 C   0  0  0  0  0  0
   -0.6649   -5.1781   13.0795 O   0  0  0  0  0  0
   -0.7406   -3.4047   11.7093 O   0  0  0  0  0  0
    1.5605   -5.3035   10.3141 C   0  0  0  0  0  0
    2.3783   -6.1417    9.9896 O   0  0  0  0  0  0
    1.8485   -4.3564   11.2314 O   0  0  0  0  0  0
    8.6581    4.0286   -3.5925 H   0  0  0  0  0  0
    7.6326    5.1719   -4.1044 H   0  0  0  0  0  0
    8.6928    3.3414   -0.5257 H   0  0  0  0  0  0
    6.3960    1.8654    2.2636 H   0  0  0  0  0  0
    5.9978   -5.3256    1.6183 H   0  0  0  0  0  0
    7.3192   -7.4176    8.8396 H   0  0  0  0  0  0
    6.2456   -2.2146    7.2553 H   0  0  0  0  0  0
   -0.4440   -2.9733   12.5382 H   0  0  0  0  0  0
    2.7069   -4.4702   11.6967 H   0  0  0  0  0  0
  1  2  1  0  0  0
  2  3  1  0  0  0
  3  4  1  0  0  0
  4  5  1  0  0  0
  5  6  1  0  0  0
  5  7  1  0  0  0
  7  8  1  0  0  0
  7 39  1  0  0  0
  8  9  1  0  0  0
  8 27  1  0  0  0
  9 10  1  0  0  0
 10 11  1  0  0  0
 10 12  1  0  0  0
 12 13  1  0  0  0
 13 14  1  0  0  0
 13 26  1  0  0  0
 14 15  1  0  0  0
 15 16  1  0  0  0
 16 17  1  0  0  0
 17 18  1  0  0  0
 18 19  1  0  0  0
 18 25  1  0  0  0
 19 20  1  0  0  0
 20 21  1  0  0  0
 20 24  1  0  0  0
 21 22  1  0  0  0
 21 23  1  0  0  0
 23 51  1  0  0  0
 23 52  1  0  0  0
 24 53  1  0  0  0
 25 54  1  0  0  0
 26 55  1  0  0  0
 27 28  1  0  0  0
 28 29  2  0  0  0
 28 30  1  0  0  0
 30 31  1  0  0  0
 31 32  1  0  0  0
 31 36  1  0  0  0
 32 33  1  0  0  0
 33 34  2  0  0  0
 33 35  1  0  0  0
 35 56  1  0  0  0
 36 37  2  0  0  0
 36 38  1  0  0  0
 38 57  1  0  0  0
 39 40  1  0  0  0
 40 41  2  0  0  0
 40 42  1  0  0  0
 42 43  1  0  0  0
 43 44  1  0  0  0
 43 48  1  0  0  0
 44 45  1  0  0  0
 45 46  2  0  0  0
 45 47  1  0  0  0
 47 58  1  0  0  0
 48 49  2  0  0  0
 48 50  1  0  0  0
 50 59  1  0  0  0
M  END
>  <AUTHOR>
    GENERATED BY OPEN BABEL 2.4.1

>  <CHROM.1>
67.17746147,58.25919032,80.71640607,-72.19026072,-65.07711750,-175.20251748
-97.99299557,147.09797862,67.72626674,75.31447802,-151.93157623,15.27161339
166.21984579,81.69505933,173.10370598,-173.08937393,172.21772793,-65.66955027
160.06732891,176.47319021,61.81712294,-54.10461759,-66.08986192,-40.07444015
98.51628185,98.55014265,-55.11497205,-123.81000541,74.16551501,-4.71228968
13.06847753,18.63478987,-26.05035448,166.62341306,-174.23114813,-19.19025698
-126.05020800,-166.38299912,177.05121097,4.08478872,-2.77952667,5.23204130
2.14079088,-0.78852232,2.54137306

>  <COMPND>
    UNNAMED

>  <MASTER>
        0    0    0    0    0    0    0    0  109    0  109    0

>  <Name>
FB1.pdb

>  <RI>
0

>  <Rbt.Current_Directory>
/home/fc/tossine/FB1_39T3/p3/0_clust01

>  <Rbt.Executable>
rbdock/0.1.0

>  <Rbt.Library>
librxdock.so/0.1.0

>  <Rbt.Parameter_File>
/cluster/rxdock/data/scripts/dock.prm

>  <Rbt.Receptor>
rx_3.prm

>  <SCORE>
3.85352

>  <SCORE.INTER>
-6.73872

>  <SCORE.INTER.CONST>
1

>  <SCORE.INTER.POLAR>
-2.92477

>  <SCORE.INTER.REPUL>
0.15025

>  <SCORE.INTER.ROT>
32

>  <SCORE.INTER.VDW>
-34.9458

>  <SCORE.INTER.norm>
-0.134774

>  <SCORE.INTRA>
10.5649

>  <SCORE.INTRA.DIHEDRAL>
10.1016

>  <SCORE.INTRA.DIHEDRAL.0>
47.3121

>  <SCORE.INTRA.POLAR>
1.47808

>  <SCORE.INTRA.POLAR.0>
-1.47808

>  <SCORE.INTRA.REPUL>
0

>  <SCORE.INTRA.REPUL.0>
0

>  <SCORE.INTRA.VDW>
0.488606

>  <SCORE.INTRA.VDW.0>
-2.78316

>  <SCORE.INTRA.norm>
0.211298

>  <SCORE.RESTR>
0.0273697

>  <SCORE.RESTR.CAVITY>
0.0273697

>  <SCORE.RESTR.norm>
0.000547394

>  <SCORE.SYSTEM>
0

>  <SCORE.SYSTEM.CONST>
0

>  <SCORE.SYSTEM.DIHEDRAL>
0

>  <SCORE.SYSTEM.norm>
0

>  <SCORE.heavy>
50

>  <SCORE.norm>
0.0770704

$$$$
