FB1.pdb
  RxDock  10062022303D
librxdock.so/0.1.0
 59 58  0  0  0  0  0  0  0  0999 V2000
    5.3470    0.3224    8.2014 C   0  0  0  0  0  0
    4.1830   -0.6640    8.2592 C   0  0  0  0  0  0
    3.1257   -0.3607    7.1848 C   0  0  0  0  0  0
    1.8793   -1.2767    7.2689 C   0  0  0  0  0  0
    1.6829   -2.2405    6.0470 C   0  0  0  0  0  0
    1.1694   -1.4080    4.8496 C   0  0  0  0  0  0
    2.9941   -3.0451    5.6580 C   0  0  0  0  0  0
    3.6697   -3.9315    6.8087 C   0  0  0  0  0  0
    3.4557   -5.4950    7.0037 C   0  0  0  0  0  0
    1.9683   -5.9324    7.5674 C   0  0  0  0  0  0
    1.6796   -7.3629    7.1154 C   0  0  0  0  0  0
    1.7514   -5.8154    9.1435 C   0  0  0  0  0  0
    1.8820   -7.0577   10.1723 C   0  0  0  0  0  0
    1.9740   -6.8574   11.7239 C   0  0  0  0  0  0
    2.8052   -7.9207   12.5769 C   0  0  0  0  0  0
    2.5441   -9.4782   12.5531 C   0  0  0  0  0  0
    2.6051  -10.2432   11.2045 C   0  0  0  0  0  0
    3.1142  -11.7354   11.2623 C   0  0  0  0  0  0
    2.3907  -12.6625   12.2470 C   0  0  0  0  0  0
    2.6220  -14.1952   12.1224 C   0  0  0  0  0  0
    2.0774  -15.1686   13.2092 C   0  0  0  0  0  0
    2.2099  -16.6562   12.9142 C   0  0  0  0  0  0
    2.6366  -14.8421   14.5348 N   0  0  0  0  0  0
    1.9348  -14.5726   10.9021 O   0  0  0  0  0  0
    3.0020  -12.2916    9.9478 O   0  0  0  0  0  0
    0.6916   -7.8364    9.9644 O   0  0  0  0  0  0
    5.1063   -3.7826    6.6456 O   0  0  0  0  0  0
    5.8593   -3.7893    7.7762 C   0  0  0  0  0  0
    5.6051   -4.3837    8.8064 O   0  0  0  0  0  0
    7.1221   -3.0166    7.5115 C   0  0  0  0  0  0
    8.2750   -3.9149    7.0358 C   0  0  0  0  0  0
    7.8504   -4.8746    5.9168 C   0  0  0  0  0  0
    7.3175   -6.1703    6.4829 C   0  0  0  0  0  0
    7.6857   -6.6458    7.5516 O   0  0  0  0  0  0
    6.3964   -6.7553    5.7031 O   0  0  0  0  0  0
    9.3675   -2.9647    6.5264 C   0  0  0  0  0  0
    9.1803   -1.7719    6.3402 O   0  0  0  0  0  0
   10.5363   -3.5612    6.2539 O   0  0  0  0  0  0
    2.7972   -3.8172    4.4071 O   0  0  0  0  0  0
    3.9123   -4.3361    3.7704 C   0  0  0  0  0  0
    5.0653   -4.1863    4.1530 O   0  0  0  0  0  0
    3.5473   -5.1344    2.5118 C   0  0  0  0  0  0
    3.1614   -4.2865    1.2601 C   0  0  0  0  0  0
    4.2892   -3.5660    0.4989 C   0  0  0  0  0  0
    4.7496   -2.3110    1.1825 C   0  0  0  0  0  0
    4.2973   -1.8596    2.2257 O   0  0  0  0  0  0
    5.7574   -1.7115    0.5303 O   0  0  0  0  0  0
    2.3178   -5.0333    0.2196 C   0  0  0  0  0  0
    2.6832   -6.0641   -0.3101 O   0  0  0  0  0  0
    1.0850   -4.5286    0.0029 O   0  0  0  0  0  0
    3.6503  -14.9408   14.5033 H   0  0  0  0  0  0
    2.3238  -15.5488   15.2043 H   0  0  0  0  0  0
    1.0048  -14.2983   11.0477 H   0  0  0  0  0  0
    3.5345  -11.7460    9.3402 H   0  0  0  0  0  0
    0.7972   -8.6791   10.4369 H   0  0  0  0  0  0
    6.1795   -7.6786    5.9354 H   0  0  0  0  0  0
   11.2436   -2.9492    5.9317 H   0  0  0  0  0  0
    5.9894   -0.9106    1.0461 H   0  0  0  0  0  0
    0.5161   -5.0554   -0.6013 H   0  0  0  0  0  0
  1  2  1  0  0  0
  2  3  1  0  0  0
  3  4  1  0  0  0
  4  5  1  0  0  0
  5  6  1  0  0  0
  5  7  1  0  0  0
  7  8  1  0  0  0
  7 39  1  0  0  0
  8  9  1  0  0  0
  8 27  1  0  0  0
  9 10  1  0  0  0
 10 11  1  0  0  0
 10 12  1  0  0  0
 12 13  1  0  0  0
 13 14  1  0  0  0
 13 26  1  0  0  0
 14 15  1  0  0  0
 15 16  1  0  0  0
 16 17  1  0  0  0
 17 18  1  0  0  0
 18 19  1  0  0  0
 18 25  1  0  0  0
 19 20  1  0  0  0
 20 21  1  0  0  0
 20 24  1  0  0  0
 21 22  1  0  0  0
 21 23  1  0  0  0
 23 51  1  0  0  0
 23 52  1  0  0  0
 24 53  1  0  0  0
 25 54  1  0  0  0
 26 55  1  0  0  0
 27 28  1  0  0  0
 28 29  2  0  0  0
 28 30  1  0  0  0
 30 31  1  0  0  0
 31 32  1  0  0  0
 31 36  1  0  0  0
 32 33  1  0  0  0
 33 34  2  0  0  0
 33 35  1  0  0  0
 35 56  1  0  0  0
 36 37  2  0  0  0
 36 38  1  0  0  0
 38 57  1  0  0  0
 39 40  1  0  0  0
 40 41  2  0  0  0
 40 42  1  0  0  0
 42 43  1  0  0  0
 43 44  1  0  0  0
 43 48  1  0  0  0
 44 45  1  0  0  0
 45 46  2  0  0  0
 45 47  1  0  0  0
 47 58  1  0  0  0
 48 49  2  0  0  0
 48 50  1  0  0  0
 50 59  1  0  0  0
M  END
>  <AUTHOR>
    GENERATED BY OPEN BABEL 2.4.1

>  <CHROM.1>
-176.01917163,-114.21138728,-74.80443460,56.34086195,97.61126230,166.10307821
-71.73845966,145.77835546,154.50867288,-97.79602701,166.26226076,-149.24442733
169.61836068,-54.98973192,56.91387391,147.77419706,53.53161581,166.40285345
58.50542659,171.43287602,172.95529723,-58.25871135,-61.16972863,30.30489401
-92.58959165,47.79412381,-88.81571717,-11.84151077,-29.58088116,166.99586545
-179.57996648,-1.28564125,76.17310387,74.23467504,-77.89268719,-57.37961375
-0.83684013,-179.91416213,-174.58828561,3.99640080,-5.98430714,7.05702727
-1.29826268,0.86117656,2.22418491

>  <COMPND>
    UNNAMED

>  <MASTER>
        0    0    0    0    0    0    0    0  109    0  109    0

>  <Name>
FB1.pdb

>  <RI>
0

>  <Rbt.Current_Directory>
/cluster/tossine/FB1_39T3/p3/0_clust01

>  <Rbt.Executable>
rbdock/0.1.0

>  <Rbt.Library>
librxdock.so/0.1.0

>  <Rbt.Parameter_File>
/cluster/rxdock/data/scripts/dock.prm

>  <Rbt.Receptor>
rx_0.prm

>  <SCORE>
-1.96315

>  <SCORE.INTER>
-7.7072

>  <SCORE.INTER.CONST>
1

>  <SCORE.INTER.POLAR>
-2.70949

>  <SCORE.INTER.REPUL>
0.281263

>  <SCORE.INTER.ROT>
32

>  <SCORE.INTER.VDW>
-37.3012

>  <SCORE.INTER.norm>
-0.154144

>  <SCORE.INTRA>
5.74405

>  <SCORE.INTRA.DIHEDRAL>
8.76278

>  <SCORE.INTRA.DIHEDRAL.0>
47.3121

>  <SCORE.INTRA.POLAR>
1.47808

>  <SCORE.INTRA.POLAR.0>
-1.47808

>  <SCORE.INTRA.REPUL>
0

>  <SCORE.INTRA.REPUL.0>
0

>  <SCORE.INTRA.VDW>
-3.6628

>  <SCORE.INTRA.VDW.0>
-2.78316

>  <SCORE.INTRA.norm>
0.114881

>  <SCORE.RESTR>
0

>  <SCORE.RESTR.CAVITY>
0

>  <SCORE.RESTR.norm>
0

>  <SCORE.SYSTEM>
0

>  <SCORE.SYSTEM.CONST>
0

>  <SCORE.SYSTEM.DIHEDRAL>
0

>  <SCORE.SYSTEM.norm>
0

>  <SCORE.heavy>
50

>  <SCORE.norm>
-0.039263

$$$$
