FB1.pdb
  RxDock  10062023143D
librxdock.so/0.1.0
 59 58  0  0  0  0  0  0  0  0999 V2000
    7.0499   -7.5015    8.8672 C   0  0  0  0  0  0
    6.8531   -7.4428    7.3542 C   0  0  0  0  0  0
    5.3850   -7.1790    6.9808 C   0  0  0  0  0  0
    5.1282   -5.7421    6.4623 C   0  0  0  0  0  0
    5.2062   -4.6203    7.5560 C   0  0  0  0  0  0
    6.6879   -4.2144    7.7303 C   0  0  0  0  0  0
    4.3056   -3.3550    7.2306 C   0  0  0  0  0  0
    4.5869   -2.6009    5.8456 C   0  0  0  0  0  0
    4.4517   -3.2560    4.4031 C   0  0  0  0  0  0
    3.1643   -4.2699    4.2133 C   0  0  0  0  0  0
    1.8877   -3.4313    4.1769 C   0  0  0  0  0  0
    3.2087   -5.2321    2.9417 C   0  0  0  0  0  0
    3.5299   -4.7327    1.4363 C   0  0  0  0  0  0
    4.7560   -3.8168    1.0987 C   0  0  0  0  0  0
    4.7937   -3.0965   -0.3257 C   0  0  0  0  0  0
    5.6310   -1.7950   -0.6415 C   0  0  0  0  0  0
    7.1779   -1.8345   -0.5271 C   0  0  0  0  0  0
    7.8817   -0.5167   -0.0201 C   0  0  0  0  0  0
    7.2945    0.8059   -0.5284 C   0  0  0  0  0  0
    6.8594    0.8950   -2.0188 C   0  0  0  0  0  0
    5.5365    1.6149   -2.4153 C   0  0  0  0  0  0
    4.8900    1.1733   -3.7208 C   0  0  0  0  0  0
    4.5646    1.5766   -1.3061 N   0  0  0  0  0  0
    7.9104    1.6589   -2.6635 O   0  0  0  0  0  0
    7.8365   -0.5142    1.4109 O   0  0  0  0  0  0
    3.7444   -5.9391    0.6846 O   0  0  0  0  0  0
    3.6819   -1.4641    5.8108 O   0  0  0  0  0  0
    4.0210   -0.3825    6.5594 C   0  0  0  0  0  0
    5.0524   -0.2371    7.1875 O   0  0  0  0  0  0
    2.9482    0.6597    6.4033 C   0  0  0  0  0  0
    2.9930    1.7236    7.5118 C   0  0  0  0  0  0
    1.9328    2.8160    7.3222 C   0  0  0  0  0  0
    1.5929    3.4796    8.6366 C   0  0  0  0  0  0
    2.3157    4.3027    9.1878 O   0  0  0  0  0  0
    0.4177    3.0831    9.1471 O   0  0  0  0  0  0
    2.7443    0.9728    8.8273 C   0  0  0  0  0  0
    2.0391   -0.0217    8.9046 O   0  0  0  0  0  0
    3.3265    1.5277    9.8992 O   0  0  0  0  0  0
    2.8659   -3.6615    7.4124 O   0  0  0  0  0  0
    2.4434   -4.1366    8.6428 C   0  0  0  0  0  0
    3.1871   -4.5559    9.5201 O   0  0  0  0  0  0
    0.9178   -4.0820    8.7973 C   0  0  0  0  0  0
    0.1974   -5.4623    8.8987 C   0  0  0  0  0  0
    0.6962   -6.4625    9.9575 C   0  0  0  0  0  0
    0.4964   -5.9762   11.3640 C   0  0  0  0  0  0
    1.2625   -5.2516   11.9840 O   0  0  0  0  0  0
   -0.6556   -6.4099   11.8981 O   0  0  0  0  0  0
   -1.3275   -5.3770    9.0391 C   0  0  0  0  0  0
   -1.8751   -4.7330    9.9122 O   0  0  0  0  0  0
   -2.0341   -5.9802    8.0604 O   0  0  0  0  0  0
    4.3455    0.6058   -1.0872 H   0  0  0  0  0  0
    3.6824    1.9790   -1.6308 H   0  0  0  0  0  0
    7.6731    1.6508   -3.6148 H   0  0  0  0  0  0
    6.9154   -0.3512    1.6858 H   0  0  0  0  0  0
    4.5631   -6.3522    1.0062 H   0  0  0  0  0  0
   -0.0245    2.3600    8.6623 H   0  0  0  0  0  0
    3.2265    1.0081   10.7351 H   0  0  0  0  0  0
   -0.7019   -6.0401   12.8050 H   0  0  0  0  0  0
   -1.4967   -6.4030    7.3543 H   0  0  0  0  0  0
  1  2  1  0  0  0
  2  3  1  0  0  0
  3  4  1  0  0  0
  4  5  1  0  0  0
  5  6  1  0  0  0
  5  7  1  0  0  0
  7  8  1  0  0  0
  7 39  1  0  0  0
  8  9  1  0  0  0
  8 27  1  0  0  0
  9 10  1  0  0  0
 10 11  1  0  0  0
 10 12  1  0  0  0
 12 13  1  0  0  0
 13 14  1  0  0  0
 13 26  1  0  0  0
 14 15  1  0  0  0
 15 16  1  0  0  0
 16 17  1  0  0  0
 17 18  1  0  0  0
 18 19  1  0  0  0
 18 25  1  0  0  0
 19 20  1  0  0  0
 20 21  1  0  0  0
 20 24  1  0  0  0
 21 22  1  0  0  0
 21 23  1  0  0  0
 23 51  1  0  0  0
 23 52  1  0  0  0
 24 53  1  0  0  0
 25 54  1  0  0  0
 26 55  1  0  0  0
 27 28  1  0  0  0
 28 29  2  0  0  0
 28 30  1  0  0  0
 30 31  1  0  0  0
 31 32  1  0  0  0
 31 36  1  0  0  0
 32 33  1  0  0  0
 33 34  2  0  0  0
 33 35  1  0  0  0
 35 56  1  0  0  0
 36 37  2  0  0  0
 36 38  1  0  0  0
 38 57  1  0  0  0
 39 40  1  0  0  0
 40 41  2  0  0  0
 40 42  1  0  0  0
 42 43  1  0  0  0
 43 44  1  0  0  0
 43 48  1  0  0  0
 44 45  1  0  0  0
 45 46  2  0  0  0
 45 47  1  0  0  0
 47 58  1  0  0  0
 48 49  2  0  0  0
 48 50  1  0  0  0
 50 59  1  0  0  0
M  END
>  <AUTHOR>
    GENERATED BY OPEN BABEL 2.4.1

>  <CHROM.1>
106.44030257,-71.61408351,84.30150128,-57.58265894,60.86610407,56.35746797
39.57908696,77.52267667,71.81099848,-49.28839015,48.87774559,-165.51693870
-67.51886041,157.51778591,62.60649688,-145.34238477,-38.65633772,-41.08959689
-71.45389028,138.42470094,-154.81263183,175.46630930,-60.90865219,5.20948452
162.27513419,177.80627426,155.90786995,-31.79495226,76.26932250,5.86142440
-175.47305774,-14.00670487,113.85122999,52.87404394,64.66319589,-54.81857648
-85.30872734,-179.56624759,-0.63442906,3.57425152,-2.36337798,5.51446748
-2.69286888,1.11832869,-0.13059890

>  <COMPND>
    UNNAMED

>  <MASTER>
        0    0    0    0    0    0    0    0  109    0  109    0

>  <Name>
FB1.pdb

>  <RI>
0

>  <Rbt.Current_Directory>
/cluster/tossine/FB1_39T3/p3/0_clust01

>  <Rbt.Executable>
rbdock/0.1.0

>  <Rbt.Library>
librxdock.so/0.1.0

>  <Rbt.Parameter_File>
/cluster/rxdock/data/scripts/dock.prm

>  <Rbt.Receptor>
rx_1.prm

>  <SCORE>
-1.61186

>  <SCORE.INTER>
-5.49017

>  <SCORE.INTER.CONST>
1

>  <SCORE.INTER.POLAR>
-4.20571

>  <SCORE.INTER.REPUL>
0.309169

>  <SCORE.INTER.ROT>
32

>  <SCORE.INTER.VDW>
-30.1366

>  <SCORE.INTER.norm>
-0.109803

>  <SCORE.INTRA>
3.87831

>  <SCORE.INTRA.DIHEDRAL>
3.69112

>  <SCORE.INTRA.DIHEDRAL.0>
47.3121

>  <SCORE.INTRA.POLAR>
1.47808

>  <SCORE.INTRA.POLAR.0>
-1.47808

>  <SCORE.INTRA.REPUL>
0

>  <SCORE.INTRA.REPUL.0>
0

>  <SCORE.INTRA.VDW>
-2.99271

>  <SCORE.INTRA.VDW.0>
-2.78316

>  <SCORE.INTRA.norm>
0.0775662

>  <SCORE.RESTR>
0

>  <SCORE.RESTR.CAVITY>
0

>  <SCORE.RESTR.norm>
0

>  <SCORE.SYSTEM>
0

>  <SCORE.SYSTEM.CONST>
0

>  <SCORE.SYSTEM.DIHEDRAL>
0

>  <SCORE.SYSTEM.norm>
0

>  <SCORE.heavy>
50

>  <SCORE.norm>
-0.0322372

$$$$
