FB1.pdb
  RxDock  10062022313D
librxdock.so/0.1.0
 59 58  0  0  0  0  0  0  0  0999 V2000
   -2.5248   -2.4365    7.6903 C   0  0  0  0  0  0
   -1.2136   -2.1352    6.9683 C   0  0  0  0  0  0
   -0.1034   -3.1206    7.3691 C   0  0  0  0  0  0
    1.2234   -2.9024    6.5998 C   0  0  0  0  0  0
    2.4936   -3.5184    7.2836 C   0  0  0  0  0  0
    2.4938   -5.0426    7.0238 C   0  0  0  0  0  0
    3.8545   -2.8603    6.8010 C   0  0  0  0  0  0
    4.5363   -3.4810    5.4910 C   0  0  0  0  0  0
    5.5576   -4.6996    5.4811 C   0  0  0  0  0  0
    4.9834   -6.0989    6.1396 C   0  0  0  0  0  0
    4.5261   -7.0162    5.0067 C   0  0  0  0  0  0
    5.9862   -6.8891    7.0961 C   0  0  0  0  0  0
    5.7912   -7.0321    8.6961 C   0  0  0  0  0  0
    6.7395   -7.9099    9.5829 C   0  0  0  0  0  0
    6.3242   -9.4254    9.8654 C   0  0  0  0  0  0
    5.1272   -9.8593   10.8001 C   0  0  0  0  0  0
    5.1383   -9.4496   12.2965 C   0  0  0  0  0  0
    3.8647   -9.8365   13.1434 C   0  0  0  0  0  0
    3.6826  -11.3274   13.4541 C   0  0  0  0  0  0
    2.5739  -12.1090   12.6937 C   0  0  0  0  0  0
    2.5321  -13.6652   12.7358 C   0  0  0  0  0  0
    2.8303  -14.3149   14.0798 C   0  0  0  0  0  0
    1.2654  -14.1723   12.1745 N   0  0  0  0  0  0
    1.3333  -11.6832   13.3131 O   0  0  0  0  0  0
    3.9218   -9.1179   14.3804 O   0  0  0  0  0  0
    5.9312   -5.6955    9.2063 O   0  0  0  0  0  0
    3.4467   -3.9177    4.6339 O   0  0  0  0  0  0
    2.7158   -2.9490    4.0235 C   0  0  0  0  0  0
    2.7293   -1.7622    4.2897 O   0  0  0  0  0  0
    1.9545   -3.5725    2.8864 C   0  0  0  0  0  0
    2.7494   -3.5676    1.5709 C   0  0  0  0  0  0
    4.2474   -3.3191    1.7892 C   0  0  0  0  0  0
    5.0441   -3.6716    0.5545 C   0  0  0  0  0  0
    5.6518   -4.7279    0.4182 O   0  0  0  0  0  0
    5.0231   -2.7156   -0.3859 O   0  0  0  0  0  0
    2.5327   -4.9509    0.9419 C   0  0  0  0  0  0
    1.8143   -5.1372   -0.0285 O   0  0  0  0  0  0
    3.1593   -5.9513    1.5764 O   0  0  0  0  0  0
    3.7353   -1.3843    6.7175 O   0  0  0  0  0  0
    3.1982   -0.7042    7.7978 C   0  0  0  0  0  0
    2.9752   -1.2026    8.8934 O   0  0  0  0  0  0
    2.9060    0.7671    7.4748 C   0  0  0  0  0  0
    2.6754    1.6979    8.7056 C   0  0  0  0  0  0
    3.9125    2.2353    9.4479 C   0  0  0  0  0  0
    5.0541    1.2602    9.4678 C   0  0  0  0  0  0
    5.0251    0.1372    9.9523 O   0  0  0  0  0  0
    6.1515    1.7424    8.8647 O   0  0  0  0  0  0
    1.7536    2.8938    8.4368 C   0  0  0  0  0  0
    0.7064    3.0665    9.0287 O   0  0  0  0  0  0
    2.2315    3.8102    7.5690 O   0  0  0  0  0  0
    1.3789  -15.1545   11.9278 H   0  0  0  0  0  0
    1.0878  -13.6966   11.2871 H   0  0  0  0  0  0
    1.4582  -11.8680   14.2678 H   0  0  0  0  0  0
    3.8116   -8.1689   14.1862 H   0  0  0  0  0  0
    5.8120   -5.7275   10.1703 H   0  0  0  0  0  0
    4.5212   -1.9115   -0.1515 H   0  0  0  0  0  0
    2.8430   -6.8555    1.3293 H   0  0  0  0  0  0
    5.9244    2.6407    8.5440 H   0  0  0  0  0  0
    1.6301    4.5649    7.3820 H   0  0  0  0  0  0
  1  2  1  0  0  0
  2  3  1  0  0  0
  3  4  1  0  0  0
  4  5  1  0  0  0
  5  6  1  0  0  0
  5  7  1  0  0  0
  7  8  1  0  0  0
  7 39  1  0  0  0
  8  9  1  0  0  0
  8 27  1  0  0  0
  9 10  1  0  0  0
 10 11  1  0  0  0
 10 12  1  0  0  0
 12 13  1  0  0  0
 13 14  1  0  0  0
 13 26  1  0  0  0
 14 15  1  0  0  0
 15 16  1  0  0  0
 16 17  1  0  0  0
 17 18  1  0  0  0
 18 19  1  0  0  0
 18 25  1  0  0  0
 19 20  1  0  0  0
 20 21  1  0  0  0
 20 24  1  0  0  0
 21 22  1  0  0  0
 21 23  1  0  0  0
 23 51  1  0  0  0
 23 52  1  0  0  0
 24 53  1  0  0  0
 25 54  1  0  0  0
 26 55  1  0  0  0
 27 28  1  0  0  0
 28 29  2  0  0  0
 28 30  1  0  0  0
 30 31  1  0  0  0
 31 32  1  0  0  0
 31 36  1  0  0  0
 32 33  1  0  0  0
 33 34  2  0  0  0
 33 35  1  0  0  0
 35 56  1  0  0  0
 36 37  2  0  0  0
 36 38  1  0  0  0
 38 57  1  0  0  0
 39 40  1  0  0  0
 40 41  2  0  0  0
 40 42  1  0  0  0
 42 43  1  0  0  0
 43 44  1  0  0  0
 43 48  1  0  0  0
 44 45  1  0  0  0
 45 46  2  0  0  0
 45 47  1  0  0  0
 47 58  1  0  0  0
 48 49  2  0  0  0
 48 50  1  0  0  0
 50 59  1  0  0  0
M  END
>  <AUTHOR>
    GENERATED BY OPEN BABEL 2.4.1

>  <CHROM.1>
176.70748435,160.09762198,77.40476341,-87.16703190,-87.97457532,49.01005467
58.23348537,71.96536857,99.24174513,110.83949863,175.15404434,-92.76613988
179.40562194,-71.01876460,-60.04865612,176.06586252,71.05810920,-106.66101324
67.16487261,167.07006426,40.88960543,-55.07822285,161.43684521,-13.29887198
-89.14975820,16.74047819,165.23008163,106.23717073,-99.55908183,1.44081240
164.85078873,10.30079385,-163.89309474,81.04532004,-34.09927646,119.02673520
-59.77642220,-0.42951767,178.61532962,3.39857463,-4.55798019,7.41246663,1.86558817
1.46085953,-0.89574798

>  <COMPND>
    UNNAMED

>  <MASTER>
        0    0    0    0    0    0    0    0  109    0  109    0

>  <Name>
FB1.pdb

>  <RI>
0

>  <Rbt.Current_Directory>
/cluster/tossine/FB1_39T3/p3/0_clust01

>  <Rbt.Executable>
rbdock/0.1.0

>  <Rbt.Library>
librxdock.so/0.1.0

>  <Rbt.Parameter_File>
/cluster/rxdock/data/scripts/dock.prm

>  <Rbt.Receptor>
rx_0.prm

>  <SCORE>
5.05075

>  <SCORE.INTER>
-8.81086

>  <SCORE.INTER.CONST>
1

>  <SCORE.INTER.POLAR>
-3.26624

>  <SCORE.INTER.REPUL>
0.162457

>  <SCORE.INTER.ROT>
32

>  <SCORE.INTER.VDW>
-35.9179

>  <SCORE.INTER.norm>
-0.176217

>  <SCORE.INTRA>
13.8616

>  <SCORE.INTRA.DIHEDRAL>
8.10721

>  <SCORE.INTRA.DIHEDRAL.0>
47.3121

>  <SCORE.INTRA.POLAR>
1.47808

>  <SCORE.INTRA.POLAR.0>
-1.47808

>  <SCORE.INTRA.REPUL>
0.0688849

>  <SCORE.INTRA.REPUL.0>
0

>  <SCORE.INTRA.VDW>
4.43811

>  <SCORE.INTRA.VDW.0>
-2.78316

>  <SCORE.INTRA.norm>
0.277232

>  <SCORE.RESTR>
0

>  <SCORE.RESTR.CAVITY>
0

>  <SCORE.RESTR.norm>
0

>  <SCORE.SYSTEM>
0

>  <SCORE.SYSTEM.CONST>
0

>  <SCORE.SYSTEM.DIHEDRAL>
0

>  <SCORE.SYSTEM.norm>
0

>  <SCORE.heavy>
50

>  <SCORE.norm>
0.101015

$$$$
