FB1.pdb
  RxDock  10072001083D
librxdock.so/0.1.0
 59 58  0  0  0  0  0  0  0  0999 V2000
    2.6945   -5.4415   11.1233 C   0  0  0  0  0  0
    2.5820   -4.4947    9.9308 C   0  0  0  0  0  0
    1.8639   -3.1882   10.3069 C   0  0  0  0  0  0
    1.4707   -2.3249    9.0822 C   0  0  0  0  0  0
    2.6035   -1.3813    8.5468 C   0  0  0  0  0  0
    3.7826   -2.2603    8.0699 C   0  0  0  0  0  0
    2.1212   -0.4042    7.3933 C   0  0  0  0  0  0
    3.1962    0.6426    6.8323 C   0  0  0  0  0  0
    3.2349    1.2068    5.3462 C   0  0  0  0  0  0
    4.7327    1.6241    4.7952 C   0  0  0  0  0  0
    5.3921    0.3833    4.1955 C   0  0  0  0  0  0
    4.7860    2.8204    3.7412 C   0  0  0  0  0  0
    5.5590    2.7454    2.3215 C   0  0  0  0  0  0
    5.1201    1.7695    1.1764 C   0  0  0  0  0  0
    6.1948    1.3761    0.0632 C   0  0  0  0  0  0
    7.2282    2.3881   -0.5713 C   0  0  0  0  0  0
    6.7324    3.7660   -1.0842 C   0  0  0  0  0  0
    7.8442    4.8133   -1.4796 C   0  0  0  0  0  0
    8.8841    4.3455   -2.5055 C   0  0  0  0  0  0
    8.4612    4.2647   -3.9997 C   0  0  0  0  0  0
    9.1126    3.2177   -4.9510 C   0  0  0  0  0  0
   10.6296    3.2618   -5.0699 C   0  0  0  0  0  0
    8.6483    1.8549   -4.6294 N   0  0  0  0  0  0
    7.0537    3.9159   -3.9651 O   0  0  0  0  0  0
    7.1904    5.9786   -1.9938 O   0  0  0  0  0  0
    5.4311    4.0630    1.7611 O   0  0  0  0  0  0
    3.0811    1.8287    7.6645 O   0  0  0  0  0  0
    3.5617    1.7418    8.9321 C   0  0  0  0  0  0
    4.1120    0.7773    9.4283 O   0  0  0  0  0  0
    3.3923    3.0795    9.5980 C   0  0  0  0  0  0
    4.4610    3.3445   10.6704 C   0  0  0  0  0  0
    5.8215    3.7160   10.0666 C   0  0  0  0  0  0
    6.7072    2.4995    9.9289 C   0  0  0  0  0  0
    7.6897    2.2927   10.6329 O   0  0  0  0  0  0
    6.3151    1.6600    8.9592 O   0  0  0  0  0  0
    3.9278    4.5071   11.5190 C   0  0  0  0  0  0
    3.7328    4.4203   12.7218 O   0  0  0  0  0  0
    3.6452    5.6163   10.8220 O   0  0  0  0  0  0
    1.4548   -1.1537    6.3005 O   0  0  0  0  0  0
    2.2440   -1.7216    5.3142 C   0  0  0  0  0  0
    3.4670   -1.7653    5.3402 O   0  0  0  0  0  0
    1.4120   -2.3025    4.1633 C   0  0  0  0  0  0
    1.3058   -3.8587    4.1224 C   0  0  0  0  0  0
    2.0849   -4.6083    3.0263 C   0  0  0  0  0  0
    3.5726   -4.5505    3.2204 C   0  0  0  0  0  0
    4.2720   -5.4578    3.6499 O   0  0  0  0  0  0
    4.0933   -3.3714    2.8477 O   0  0  0  0  0  0
    1.6150   -4.5541    5.4540 C   0  0  0  0  0  0
    2.3611   -5.5092    5.5424 O   0  0  0  0  0  0
    1.0864   -3.9694    6.5495 O   0  0  0  0  0  0
    8.7076    1.7107   -3.6223 H   0  0  0  0  0  0
    9.3057    1.1825   -5.0309 H   0  0  0  0  0  0
    6.6071    4.7248   -3.6371 H   0  0  0  0  0  0
    6.9525    6.5509   -1.2412 H   0  0  0  0  0  0
    5.9219    4.6803    2.3290 H   0  0  0  0  0  0
    6.8694    0.8639    8.8481 H   0  0  0  0  0  0
    3.2944    6.3643   11.3662 H   0  0  0  0  0  0
    3.3475   -2.8252    2.5211 H   0  0  0  0  0  0
    0.6044   -3.1286    6.3851 H   0  0  0  0  0  0
  1  2  1  0  0  0
  2  3  1  0  0  0
  3  4  1  0  0  0
  4  5  1  0  0  0
  5  6  1  0  0  0
  5  7  1  0  0  0
  7  8  1  0  0  0
  7 39  1  0  0  0
  8  9  1  0  0  0
  8 27  1  0  0  0
  9 10  1  0  0  0
 10 11  1  0  0  0
 10 12  1  0  0  0
 12 13  1  0  0  0
 13 14  1  0  0  0
 13 26  1  0  0  0
 14 15  1  0  0  0
 15 16  1  0  0  0
 16 17  1  0  0  0
 17 18  1  0  0  0
 18 19  1  0  0  0
 18 25  1  0  0  0
 19 20  1  0  0  0
 20 21  1  0  0  0
 20 24  1  0  0  0
 21 22  1  0  0  0
 21 23  1  0  0  0
 23 51  1  0  0  0
 23 52  1  0  0  0
 24 53  1  0  0  0
 25 54  1  0  0  0
 26 55  1  0  0  0
 27 28  1  0  0  0
 28 29  2  0  0  0
 28 30  1  0  0  0
 30 31  1  0  0  0
 31 32  1  0  0  0
 31 36  1  0  0  0
 32 33  1  0  0  0
 33 34  2  0  0  0
 33 35  1  0  0  0
 35 56  1  0  0  0
 36 37  2  0  0  0
 36 38  1  0  0  0
 38 57  1  0  0  0
 39 40  1  0  0  0
 40 41  2  0  0  0
 40 42  1  0  0  0
 42 43  1  0  0  0
 43 44  1  0  0  0
 43 48  1  0  0  0
 44 45  1  0  0  0
 45 46  2  0  0  0
 45 47  1  0  0  0
 47 58  1  0  0  0
 48 49  2  0  0  0
 48 50  1  0  0  0
 50 59  1  0  0  0
M  END
>  <AUTHOR>
    GENERATED BY OPEN BABEL 2.4.1

>  <CHROM.1>
-168.27602732,-84.63817964,62.38967534,177.28978291,149.75209795,-84.42004173
-150.96840278,72.44048510,86.96519261,-129.01435957,65.10267807,-158.27840582
65.54288747,-40.23466897,-48.07267846,170.08872101,54.60612070,75.67168989
85.42187648,-149.92647942,-56.68047607,71.03766134,-47.09492481,2.07947498
-150.79474208,76.00922308,-94.44360918,120.89967694,-108.31498658,-179.95208765
179.51936125,7.47730522,-105.57180942,-107.56921755,68.88369763,-132.34507522
103.34181916,-0.59643603,-3.56768467,4.58130811,0.56911679,4.79612072,2.48925191
1.10653890,1.05214588

>  <COMPND>
    UNNAMED

>  <MASTER>
        0    0    0    0    0    0    0    0  109    0  109    0

>  <Name>
FB1.pdb

>  <RI>
0

>  <Rbt.Current_Directory>
/cluster/tossine/FB1_39T3/p3/0_clust01

>  <Rbt.Executable>
rbdock/0.1.0

>  <Rbt.Library>
librxdock.so/0.1.0

>  <Rbt.Parameter_File>
/cluster/rxdock/data/scripts/dock.prm

>  <Rbt.Receptor>
rx_4.prm

>  <SCORE>
5.33847

>  <SCORE.INTER>
-3.73424

>  <SCORE.INTER.CONST>
1

>  <SCORE.INTER.POLAR>
-1.4439

>  <SCORE.INTER.REPUL>
0.0613932

>  <SCORE.INTER.ROT>
32

>  <SCORE.INTER.VDW>
-36.5319

>  <SCORE.INTER.norm>
-0.0746848

>  <SCORE.INTRA>
7.87351

>  <SCORE.INTRA.DIHEDRAL>
4.86142

>  <SCORE.INTRA.DIHEDRAL.0>
47.3121

>  <SCORE.INTRA.POLAR>
0.389341

>  <SCORE.INTRA.POLAR.0>
-1.47808

>  <SCORE.INTRA.REPUL>
0

>  <SCORE.INTRA.REPUL.0>
0

>  <SCORE.INTRA.VDW>
4.11904

>  <SCORE.INTRA.VDW.0>
-2.78316

>  <SCORE.INTRA.norm>
0.15747

>  <SCORE.RESTR>
1.19921

>  <SCORE.RESTR.CAVITY>
1.19921

>  <SCORE.RESTR.norm>
0.0239841

>  <SCORE.SYSTEM>
0

>  <SCORE.SYSTEM.CONST>
0

>  <SCORE.SYSTEM.DIHEDRAL>
0

>  <SCORE.SYSTEM.norm>
0

>  <SCORE.heavy>
50

>  <SCORE.norm>
0.106769

$$$$
