FB1.pdb
  RxDock  10062023173D
librxdock.so/0.1.0
 59 58  0  0  0  0  0  0  0  0999 V2000
    5.6885   -6.6732    5.3589 C   0  0  0  0  0  0
    4.2120   -6.8813    5.6876 C   0  0  0  0  0  0
    3.9081   -6.5724    7.1629 C   0  0  0  0  0  0
    4.0165   -5.0675    7.5138 C   0  0  0  0  0  0
    3.6244   -4.7020    8.9879 C   0  0  0  0  0  0
    4.7787   -5.1378    9.9197 C   0  0  0  0  0  0
    3.2814   -3.1659    9.1896 C   0  0  0  0  0  0
    4.3117   -2.1053    8.5732 C   0  0  0  0  0  0
    4.9017   -2.1542    7.0975 C   0  0  0  0  0  0
    6.4350   -1.5669    6.9375 C   0  0  0  0  0  0
    7.4111   -2.7414    6.9791 C   0  0  0  0  0  0
    6.7173   -0.6825    5.6402 C   0  0  0  0  0  0
    5.5976    0.2152    4.8924 C   0  0  0  0  0  0
    4.5323   -0.4051    3.9247 C   0  0  0  0  0  0
    4.9980   -0.8298    2.4578 C   0  0  0  0  0  0
    5.6077    0.1673    1.3955 C   0  0  0  0  0  0
    6.4661   -0.3892    0.2289 C   0  0  0  0  0  0
    5.7039   -1.2219   -0.8732 C   0  0  0  0  0  0
    6.5784   -1.9327   -1.9136 C   0  0  0  0  0  0
    5.8977   -2.4752   -3.2022 C   0  0  0  0  0  0
    5.3458   -1.4943   -4.2786 C   0  0  0  0  0  0
    4.5795   -2.1196   -5.4358 C   0  0  0  0  0  0
    4.5634   -0.4121   -3.6517 N   0  0  0  0  0  0
    6.9371   -3.2281   -3.8780 O   0  0  0  0  0  0
    4.9000   -2.2026   -0.2085 O   0  0  0  0  0  0
    4.8360    0.8154    5.9537 O   0  0  0  0  0  0
    3.6594   -0.8092    8.6571 O   0  0  0  0  0  0
    4.4052    0.2279    9.1191 C   0  0  0  0  0  0
    5.3545    0.1506    9.8756 O   0  0  0  0  0  0
    3.9259    1.4906    8.4579 C   0  0  0  0  0  0
    2.3930    1.6013    8.4378 C   0  0  0  0  0  0
    1.8121    1.9792    9.8064 C   0  0  0  0  0  0
    0.3348    1.6692    9.8760 C   0  0  0  0  0  0
   -0.1139    0.5444   10.0689 O   0  0  0  0  0  0
   -0.4459    2.7468    9.7076 O   0  0  0  0  0  0
    2.0621    2.6902    7.4078 C   0  0  0  0  0  0
    2.8416    3.0421    6.5355 O   0  0  0  0  0  0
    0.8614    3.2618    7.5736 O   0  0  0  0  0  0
    1.8820   -2.8733    8.7947 O   0  0  0  0  0  0
    1.3553   -3.5334    7.6971 C   0  0  0  0  0  0
    1.2834   -3.0623    6.5696 O   0  0  0  0  0  0
    0.8618   -4.9439    8.0455 C   0  0  0  0  0  0
   -0.4684   -5.0147    8.8579 C   0  0  0  0  0  0
   -1.3677   -6.2497    8.6670 C   0  0  0  0  0  0
   -0.7063   -7.5285    9.0932 C   0  0  0  0  0  0
   -0.9196   -8.1284   10.1378 O   0  0  0  0  0  0
    0.1637   -7.9855    8.1797 O   0  0  0  0  0  0
   -0.3053   -4.8023   10.3681 C   0  0  0  0  0  0
   -1.0413   -4.0859   11.0174 O   0  0  0  0  0  0
    0.6503   -5.5504   10.9585 O   0  0  0  0  0  0
    5.1732    0.1310   -3.0420 H   0  0  0  0  0  0
    3.8704   -0.8299   -3.0267 H   0  0  0  0  0  0
    6.5047   -3.5739   -4.6872 H   0  0  0  0  0  0
    4.2798   -2.5796   -0.8595 H   0  0  0  0  0  0
    5.3978    1.4780    6.3894 H   0  0  0  0  0  0
   -1.4054    2.5670    9.6870 H   0  0  0  0  0  0
    0.6166    3.9131    6.8703 H   0  0  0  0  0  0
    0.4432   -8.8766    8.4785 H   0  0  0  0  0  0
    0.6944   -5.4783   11.9378 H   0  0  0  0  0  0
  1  2  1  0  0  0
  2  3  1  0  0  0
  3  4  1  0  0  0
  4  5  1  0  0  0
  5  6  1  0  0  0
  5  7  1  0  0  0
  7  8  1  0  0  0
  7 39  1  0  0  0
  8  9  1  0  0  0
  8 27  1  0  0  0
  9 10  1  0  0  0
 10 11  1  0  0  0
 10 12  1  0  0  0
 12 13  1  0  0  0
 13 14  1  0  0  0
 13 26  1  0  0  0
 14 15  1  0  0  0
 15 16  1  0  0  0
 16 17  1  0  0  0
 17 18  1  0  0  0
 18 19  1  0  0  0
 18 25  1  0  0  0
 19 20  1  0  0  0
 20 21  1  0  0  0
 20 24  1  0  0  0
 21 22  1  0  0  0
 21 23  1  0  0  0
 23 51  1  0  0  0
 23 52  1  0  0  0
 24 53  1  0  0  0
 25 54  1  0  0  0
 26 55  1  0  0  0
 27 28  1  0  0  0
 28 29  2  0  0  0
 28 30  1  0  0  0
 30 31  1  0  0  0
 31 32  1  0  0  0
 31 36  1  0  0  0
 32 33  1  0  0  0
 33 34  2  0  0  0
 33 35  1  0  0  0
 35 56  1  0  0  0
 36 37  2  0  0  0
 36 38  1  0  0  0
 38 57  1  0  0  0
 39 40  1  0  0  0
 40 41  2  0  0  0
 40 42  1  0  0  0
 42 43  1  0  0  0
 43 44  1  0  0  0
 43 48  1  0  0  0
 44 45  1  0  0  0
 45 46  2  0  0  0
 45 47  1  0  0  0
 47 58  1  0  0  0
 48 49  2  0  0  0
 48 50  1  0  0  0
 50 59  1  0  0  0
M  END
>  <AUTHOR>
    GENERATED BY OPEN BABEL 2.4.1

>  <CHROM.1>
69.45785403,176.27255955,75.36361699,-47.81425374,47.91809276,-37.38033459
-147.80095083,134.60563257,96.74332334,29.31637145,-78.58891197,-76.05436537
70.38585057,-60.00286860,158.71545289,69.68270261,-171.74372756,-165.57488205
167.29017051,69.46497892,-174.28031210,179.66399678,62.56631136,-27.07855560
45.06419330,75.59683757,-162.46002736,20.13180501,79.12090938,176.00781690
-175.45734254,-98.41254620,73.83141307,150.64005008,62.70749056,135.22048767
102.47014203,-171.91558950,-174.27456330,3.26530897,-2.15835130,5.95036251
0.18163210,-1.17659002,-2.78750569

>  <COMPND>
    UNNAMED

>  <MASTER>
        0    0    0    0    0    0    0    0  109    0  109    0

>  <Name>
FB1.pdb

>  <RI>
0

>  <Rbt.Current_Directory>
/cluster/tossine/FB1_39T3/p3/0_clust01

>  <Rbt.Executable>
rbdock/0.1.0

>  <Rbt.Library>
librxdock.so/0.1.0

>  <Rbt.Parameter_File>
/cluster/rxdock/data/scripts/dock.prm

>  <Rbt.Receptor>
rx_1.prm

>  <SCORE>
22.6228

>  <SCORE.INTER>
7.29516

>  <SCORE.INTER.CONST>
1

>  <SCORE.INTER.POLAR>
-1.71652

>  <SCORE.INTER.REPUL>
0.0428406

>  <SCORE.INTER.ROT>
32

>  <SCORE.INTER.VDW>
-24.4829

>  <SCORE.INTER.norm>
0.145903

>  <SCORE.INTRA>
15.2896

>  <SCORE.INTRA.DIHEDRAL>
25.8873

>  <SCORE.INTRA.DIHEDRAL.0>
47.3121

>  <SCORE.INTRA.POLAR>
1.47808

>  <SCORE.INTRA.POLAR.0>
-1.47808

>  <SCORE.INTRA.REPUL>
0.0191412

>  <SCORE.INTRA.REPUL.0>
0

>  <SCORE.INTRA.VDW>
-2.77525

>  <SCORE.INTRA.VDW.0>
-2.78316

>  <SCORE.INTRA.norm>
0.305791

>  <SCORE.RESTR>
0.038094

>  <SCORE.RESTR.CAVITY>
0.038094

>  <SCORE.RESTR.norm>
0.00076188

>  <SCORE.SYSTEM>
0

>  <SCORE.SYSTEM.CONST>
0

>  <SCORE.SYSTEM.DIHEDRAL>
0

>  <SCORE.SYSTEM.norm>
0

>  <SCORE.heavy>
50

>  <SCORE.norm>
0.452456

$$$$
