FB1.pdb
  RxDock  10072000333D
librxdock.so/0.1.0
 59 58  0  0  0  0  0  0  0  0999 V2000
    7.4090  -10.1284   10.9967 C   0  0  0  0  0  0
    6.6035   -8.8509   10.7717 C   0  0  0  0  0  0
    7.1117   -8.0649    9.5518 C   0  0  0  0  0  0
    6.2998   -6.7772    9.2650 C   0  0  0  0  0  0
    4.8053   -7.0154    8.8525 C   0  0  0  0  0  0
    4.0230   -7.4731   10.1052 C   0  0  0  0  0  0
    4.1216   -5.7467    8.1887 C   0  0  0  0  0  0
    4.0774   -4.4053    9.0632 C   0  0  0  0  0  0
    5.0225   -3.1441    8.8526 C   0  0  0  0  0  0
    4.3234   -1.6847    9.1734 C   0  0  0  0  0  0
    5.3856   -0.5960    9.0297 C   0  0  0  0  0  0
    3.0480   -1.3073    8.2928 C   0  0  0  0  0  0
    3.0941   -0.3393    6.9969 C   0  0  0  0  0  0
    4.1654   -0.5016    5.8646 C   0  0  0  0  0  0
    5.2006    0.6900    5.6250 C   0  0  0  0  0  0
    4.7832    2.1753    5.2871 C   0  0  0  0  0  0
    4.1396    2.4946    3.9119 C   0  0  0  0  0  0
    5.0835    2.3973    2.6514 C   0  0  0  0  0  0
    5.5514    0.9901    2.2600 C   0  0  0  0  0  0
    5.6589    0.6427    0.7481 C   0  0  0  0  0  0
    6.6674    1.3978   -0.1676 C   0  0  0  0  0  0
    6.5900    1.0925   -1.6569 C   0  0  0  0  0  0
    6.6118    2.8517    0.0762 N   0  0  0  0  0  0
    6.0893   -0.7421    0.7187 O   0  0  0  0  0  0
    4.3934    2.9735    1.5372 O   0  0  0  0  0  0
    1.8273   -0.5333    6.3454 O   0  0  0  0  0  0
    2.7318   -3.8737    8.9243 O   0  0  0  0  0  0
    1.7406   -4.5226    9.5890 C   0  0  0  0  0  0
    1.8664   -5.1817   10.6035 O   0  0  0  0  0  0
    0.4323   -4.2080    8.9177 C   0  0  0  0  0  0
   -0.4973   -3.3627    9.8031 C   0  0  0  0  0  0
    0.1131   -2.0033   10.1679 C   0  0  0  0  0  0
    0.2805   -1.1346    8.9429 C   0  0  0  0  0  0
    0.4668    0.0765    8.9906 O   0  0  0  0  0  0
    0.2077   -1.8164    7.7902 O   0  0  0  0  0  0
   -1.7839   -3.1598    8.9909 C   0  0  0  0  0  0
   -2.3361   -2.0762    8.8759 O   0  0  0  0  0  0
   -2.2829   -4.2826    8.4558 O   0  0  0  0  0  0
    4.6545   -5.5028    6.8262 O   0  0  0  0  0  0
    4.0642   -4.5158    6.0545 C   0  0  0  0  0  0
    2.9850   -3.9927    6.2994 O   0  0  0  0  0  0
    4.9186   -4.1370    4.8376 C   0  0  0  0  0  0
    4.1287   -3.7778    3.5408 C   0  0  0  0  0  0
    2.9992   -4.7248    3.0961 C   0  0  0  0  0  0
    3.5078   -5.9893    2.4662 C   0  0  0  0  0  0
    3.1562   -6.4390    1.3842 O   0  0  0  0  0  0
    4.4360   -6.6000    3.2184 O   0  0  0  0  0  0
    3.5622   -2.3529    3.5134 C   0  0  0  0  0  0
    2.5809   -2.0201    4.1484 O   0  0  0  0  0  0
    4.2890   -1.4536    2.8174 O   0  0  0  0  0  0
    7.1868    3.3289   -0.6167 H   0  0  0  0  0  0
    7.0611    3.0500    0.9730 H   0  0  0  0  0  0
    6.9570   -0.7405    1.1752 H   0  0  0  0  0  0
    5.0467    3.1592    0.8378 H   0  0  0  0  0  0
    1.7364    0.1459    5.6563 H   0  0  0  0  0  0
    0.5106   -1.3308    6.9991 H   0  0  0  0  0  0
   -3.0347   -4.1391    7.8290 H   0  0  0  0  0  0
    4.6363   -7.4538    2.7799 H   0  0  0  0  0  0
    4.6907   -1.7917    1.9864 H   0  0  0  0  0  0
  1  2  1  0  0  0
  2  3  1  0  0  0
  3  4  1  0  0  0
  4  5  1  0  0  0
  5  6  1  0  0  0
  5  7  1  0  0  0
  7  8  1  0  0  0
  7 39  1  0  0  0
  8  9  1  0  0  0
  8 27  1  0  0  0
  9 10  1  0  0  0
 10 11  1  0  0  0
 10 12  1  0  0  0
 12 13  1  0  0  0
 13 14  1  0  0  0
 13 26  1  0  0  0
 14 15  1  0  0  0
 15 16  1  0  0  0
 16 17  1  0  0  0
 17 18  1  0  0  0
 18 19  1  0  0  0
 18 25  1  0  0  0
 19 20  1  0  0  0
 20 21  1  0  0  0
 20 24  1  0  0  0
 21 22  1  0  0  0
 21 23  1  0  0  0
 23 51  1  0  0  0
 23 52  1  0  0  0
 24 53  1  0  0  0
 25 54  1  0  0  0
 26 55  1  0  0  0
 27 28  1  0  0  0
 28 29  2  0  0  0
 28 30  1  0  0  0
 30 31  1  0  0  0
 31 32  1  0  0  0
 31 36  1  0  0  0
 32 33  1  0  0  0
 33 34  2  0  0  0
 33 35  1  0  0  0
 35 56  1  0  0  0
 36 37  2  0  0  0
 36 38  1  0  0  0
 38 57  1  0  0  0
 39 40  1  0  0  0
 40 41  2  0  0  0
 40 42  1  0  0  0
 42 43  1  0  0  0
 43 44  1  0  0  0
 43 48  1  0  0  0
 44 45  1  0  0  0
 45 46  2  0  0  0
 45 47  1  0  0  0
 47 58  1  0  0  0
 48 49  2  0  0  0
 48 50  1  0  0  0
 50 59  1  0  0  0
M  END
>  <AUTHOR>
    GENERATED BY OPEN BABEL 2.4.1

>  <CHROM.1>
178.57892024,-64.95292880,72.18917051,-58.65290189,103.71436609,173.41272136
146.08263037,73.72742400,175.63958443,-98.83402504,47.41623530,-116.43575204
169.55099656,-57.55723287,-68.84540035,-70.04860293,69.01089086,141.98288585
163.39720429,63.51180759,-173.53594905,-60.87766397,-172.58564948,26.62546768
-112.76103164,60.92572850,65.57077170,-133.73702938,163.57031513,-166.65319473
-171.74163768,-14.27023035,144.44065858,-47.69808589,-75.73534902,-75.71557579
-128.40825729,174.09718286,38.54409529,3.55214321,-2.70973214,6.15876918
-1.86651090,0.75686268,-0.67590567

>  <COMPND>
    UNNAMED

>  <MASTER>
        0    0    0    0    0    0    0    0  109    0  109    0

>  <Name>
FB1.pdb

>  <RI>
0

>  <Rbt.Current_Directory>
/cluster/tossine/FB1_39T3/p3/0_clust01

>  <Rbt.Executable>
rbdock/0.1.0

>  <Rbt.Library>
librxdock.so/0.1.0

>  <Rbt.Parameter_File>
/cluster/rxdock/data/scripts/dock.prm

>  <Rbt.Receptor>
rx_3.prm

>  <SCORE>
13.811

>  <SCORE.INTER>
8.60614

>  <SCORE.INTER.CONST>
1

>  <SCORE.INTER.POLAR>
-1.53417

>  <SCORE.INTER.REPUL>
0.18061

>  <SCORE.INTER.ROT>
32

>  <SCORE.INTER.VDW>
-24.4807

>  <SCORE.INTER.norm>
0.172123

>  <SCORE.INTRA>
5.1712

>  <SCORE.INTRA.DIHEDRAL>
13.0627

>  <SCORE.INTRA.DIHEDRAL.0>
47.3121

>  <SCORE.INTRA.POLAR>
-0.842846

>  <SCORE.INTRA.POLAR.0>
-1.47808

>  <SCORE.INTRA.REPUL>
0

>  <SCORE.INTRA.REPUL.0>
0

>  <SCORE.INTRA.VDW>
1.50551

>  <SCORE.INTRA.VDW.0>
-2.78316

>  <SCORE.INTRA.norm>
0.103424

>  <SCORE.RESTR>
0.0336358

>  <SCORE.RESTR.CAVITY>
0.0336358

>  <SCORE.RESTR.norm>
0.000672716

>  <SCORE.SYSTEM>
0

>  <SCORE.SYSTEM.CONST>
0

>  <SCORE.SYSTEM.DIHEDRAL>
0

>  <SCORE.SYSTEM.norm>
0

>  <SCORE.heavy>
50

>  <SCORE.norm>
0.27622

$$$$
