FB1.pdb
  RxDock  10062022263D
librxdock.so/0.1.0
 59 58  0  0  0  0  0  0  0  0999 V2000
    6.9137   -7.4171    8.9601 C   0  0  0  0  0  0
    5.5840   -7.2423    8.2303 C   0  0  0  0  0  0
    5.7392   -6.3887    6.9608 C   0  0  0  0  0  0
    6.2235   -4.9446    7.2429 C   0  0  0  0  0  0
    5.0948   -3.9376    7.6585 C   0  0  0  0  0  0
    5.7645   -2.6662    8.2292 C   0  0  0  0  0  0
    4.1032   -3.5739    6.4743 C   0  0  0  0  0  0
    3.0941   -4.7218    5.9943 C   0  0  0  0  0  0
    1.6284   -4.9497    6.5670 C   0  0  0  0  0  0
    1.5280   -6.0027    7.8329 C   0  0  0  0  0  0
    1.6420   -7.4262    7.2900 C   0  0  0  0  0  0
    2.5859   -5.7921    9.0082 C   0  0  0  0  0  0
    2.3447   -4.8268   10.2843 C   0  0  0  0  0  0
    1.3206   -5.1740   11.4187 C   0  0  0  0  0  0
   -0.1439   -5.6502   10.9972 C   0  0  0  0  0  0
   -0.4433   -6.9169   10.1026 C   0  0  0  0  0  0
    0.2971   -8.2495   10.3918 C   0  0  0  0  0  0
   -0.0294   -8.9544   11.7650 C   0  0  0  0  0  0
    0.3696  -10.4307   11.8826 C   0  0  0  0  0  0
    1.8796  -10.7946   11.8079 C   0  0  0  0  0  0
    2.3766  -12.2042   12.2455 C   0  0  0  0  0  0
    3.8816  -12.3750   12.3974 C   0  0  0  0  0  0
    1.6694  -12.6577   13.4582 N   0  0  0  0  0  0
    2.2113  -10.7002   10.3991 O   0  0  0  0  0  0
    0.6274   -8.2216   12.8049 O   0  0  0  0  0  0
    3.6217   -4.7557   10.9406 O   0  0  0  0  0  0
    2.8959   -4.5185    4.5689 O   0  0  0  0  0  0
    3.6209   -5.3007    3.7275 C   0  0  0  0  0  0
    4.3019   -6.2579    4.0428 O   0  0  0  0  0  0
    3.3625   -4.8491    2.3166 C   0  0  0  0  0  0
    4.3923   -3.8175    1.8290 C   0  0  0  0  0  0
    4.4633   -3.7345    0.2988 C   0  0  0  0  0  0
    5.7813   -3.1512   -0.1549 C   0  0  0  0  0  0
    6.3687   -2.2562    0.4432 O   0  0  0  0  0  0
    6.2533   -3.7084   -1.2799 O   0  0  0  0  0  0
    3.9444   -2.4683    2.4080 C   0  0  0  0  0  0
    2.8399   -2.2861    2.8972 O   0  0  0  0  0  0
    4.8496   -1.4874    2.2885 O   0  0  0  0  0  0
    3.4019   -2.2938    6.7373 O   0  0  0  0  0  0
    2.5368   -1.8058    5.7721 C   0  0  0  0  0  0
    1.5032   -2.3589    5.4196 O   0  0  0  0  0  0
    3.0155   -0.4743    5.1784 C   0  0  0  0  0  0
    3.6805    0.5157    6.1845 C   0  0  0  0  0  0
    3.8518    1.9826    5.7495 C   0  0  0  0  0  0
    4.6873    2.1335    4.5110 C   0  0  0  0  0  0
    4.9011    1.2582    3.6836 O   0  0  0  0  0  0
    5.1855    3.3719    4.3758 O   0  0  0  0  0  0
    3.0456    0.5285    7.5805 C   0  0  0  0  0  0
    3.6337    0.1564    8.5767 O   0  0  0  0  0  0
    1.8176    1.0835    7.6535 O   0  0  0  0  0  0
    0.6644  -12.6142   13.2947 H   0  0  0  0  0  0
    1.8435  -11.9853   14.2085 H   0  0  0  0  0  0
    3.1911  -10.7243   10.3741 H   0  0  0  0  0  0
    0.3186   -7.2976   12.7675 H   0  0  0  0  0  0
    3.5224   -4.2011   11.7324 H   0  0  0  0  0  0
    7.0268   -3.2611   -1.6736 H   0  0  0  0  0  0
    4.5876   -0.6335    2.7140 H   0  0  0  0  0  0
    5.0108    3.8391    5.2199 H   0  0  0  0  0  0
    1.4389    1.1471    8.5583 H   0  0  0  0  0  0
  1  2  1  0  0  0
  2  3  1  0  0  0
  3  4  1  0  0  0
  4  5  1  0  0  0
  5  6  1  0  0  0
  5  7  1  0  0  0
  7  8  1  0  0  0
  7 39  1  0  0  0
  8  9  1  0  0  0
  8 27  1  0  0  0
  9 10  1  0  0  0
 10 11  1  0  0  0
 10 12  1  0  0  0
 12 13  1  0  0  0
 13 14  1  0  0  0
 13 26  1  0  0  0
 14 15  1  0  0  0
 15 16  1  0  0  0
 16 17  1  0  0  0
 17 18  1  0  0  0
 18 19  1  0  0  0
 18 25  1  0  0  0
 19 20  1  0  0  0
 20 21  1  0  0  0
 20 24  1  0  0  0
 21 22  1  0  0  0
 21 23  1  0  0  0
 23 51  1  0  0  0
 23 52  1  0  0  0
 24 53  1  0  0  0
 25 54  1  0  0  0
 26 55  1  0  0  0
 27 28  1  0  0  0
 28 29  2  0  0  0
 28 30  1  0  0  0
 30 31  1  0  0  0
 31 32  1  0  0  0
 31 36  1  0  0  0
 32 33  1  0  0  0
 33 34  2  0  0  0
 33 35  1  0  0  0
 35 56  1  0  0  0
 36 37  2  0  0  0
 36 38  1  0  0  0
 38 57  1  0  0  0
 39 40  1  0  0  0
 40 41  2  0  0  0
 40 42  1  0  0  0
 42 43  1  0  0  0
 43 44  1  0  0  0
 43 48  1  0  0  0
 44 45  1  0  0  0
 45 46  2  0  0  0
 45 47  1  0  0  0
 47 58  1  0  0  0
 48 49  2  0  0  0
 48 50  1  0  0  0
 50 59  1  0  0  0
M  END
>  <AUTHOR>
    GENERATED BY OPEN BABEL 2.4.1

>  <CHROM.1>
-61.97767941,-82.87724505,166.42228095,70.94440948,91.07476666,177.48525246
-91.68328858,99.08100943,-76.68400238,88.94083753,70.78851716,-47.33295200
-178.56524745,58.95869446,45.07512371,66.06627989,163.02561074,63.82176621
57.35529561,165.70212048,-168.33862013,167.39518039,54.30609649,9.18927993
93.01025116,159.14878497,-158.31597178,-13.68802345,-36.52096840,170.82180898
-176.13664317,64.40356342,-37.92143887,-164.63990545,-59.33627133,114.33735819
20.79761574,10.21841040,-175.93945882,3.29802822,-4.51861885,6.93249262,-2.24727393
1.20750808,-0.12523147

>  <COMPND>
    UNNAMED

>  <MASTER>
        0    0    0    0    0    0    0    0  109    0  109    0

>  <Name>
FB1.pdb

>  <RI>
0

>  <Rbt.Current_Directory>
/cluster/tossine/FB1_39T3/p3/0_clust01

>  <Rbt.Executable>
rbdock/0.1.0

>  <Rbt.Library>
librxdock.so/0.1.0

>  <Rbt.Parameter_File>
/cluster/rxdock/data/scripts/dock.prm

>  <Rbt.Receptor>
rx_0.prm

>  <SCORE>
-0.397295

>  <SCORE.INTER>
-4.38418

>  <SCORE.INTER.CONST>
1

>  <SCORE.INTER.POLAR>
-3.00033

>  <SCORE.INTER.REPUL>
0.0938295

>  <SCORE.INTER.ROT>
32

>  <SCORE.INTER.VDW>
-32.0522

>  <SCORE.INTER.norm>
-0.0876836

>  <SCORE.INTRA>
3.98599

>  <SCORE.INTRA.DIHEDRAL>
11.5493

>  <SCORE.INTRA.DIHEDRAL.0>
47.3121

>  <SCORE.INTRA.POLAR>
0.478077

>  <SCORE.INTRA.POLAR.0>
-1.47808

>  <SCORE.INTRA.REPUL>
0

>  <SCORE.INTRA.REPUL.0>
0

>  <SCORE.INTRA.VDW>
-3.41413

>  <SCORE.INTRA.VDW.0>
-2.78316

>  <SCORE.INTRA.norm>
0.0797197

>  <SCORE.RESTR>
0.000900756

>  <SCORE.RESTR.CAVITY>
0.000900756

>  <SCORE.RESTR.norm>
1.80151e-05

>  <SCORE.SYSTEM>
0

>  <SCORE.SYSTEM.CONST>
0

>  <SCORE.SYSTEM.DIHEDRAL>
0

>  <SCORE.SYSTEM.norm>
0

>  <SCORE.heavy>
50

>  <SCORE.norm>
-0.0079459

$$$$
