FB1.pdb
  RxDock  10072001083D
librxdock.so/0.1.0
 59 58  0  0  0  0  0  0  0  0999 V2000
    3.0274   -8.2663   12.9656 C   0  0  0  0  0  0
    3.1708   -6.9174   12.2646 C   0  0  0  0  0  0
    3.2141   -7.0722   10.7354 C   0  0  0  0  0  0
    3.5218   -5.7499    9.9893 C   0  0  0  0  0  0
    3.6008   -5.8744    8.4277 C   0  0  0  0  0  0
    2.1964   -6.2463    7.8986 C   0  0  0  0  0  0
    4.1476   -4.5663    7.7151 C   0  0  0  0  0  0
    3.5789   -3.1631    8.2384 C   0  0  0  0  0  0
    3.8425   -1.7546    7.5493 C   0  0  0  0  0  0
    3.6337   -1.7265    5.9131 C   0  0  0  0  0  0
    2.1357   -1.7563    5.6147 C   0  0  0  0  0  0
    4.3091   -0.5060    5.1391 C   0  0  0  0  0  0
    4.0046    1.0510    5.4577 C   0  0  0  0  0  0
    3.8044    2.1166    4.3261 C   0  0  0  0  0  0
    5.0959    2.8481    3.7376 C   0  0  0  0  0  0
    5.4442    2.9355    2.1996 C   0  0  0  0  0  0
    4.8962    1.8562    1.2289 C   0  0  0  0  0  0
    5.5734    0.4330    1.3013 C   0  0  0  0  0  0
    6.9928    0.3262    0.7299 C   0  0  0  0  0  0
    7.1636    0.2731   -0.8148 C   0  0  0  0  0  0
    6.0360    0.7943   -1.7541 C   0  0  0  0  0  0
    5.8387    2.3029   -1.8035 C   0  0  0  0  0  0
    6.1839    0.2371   -3.1121 N   0  0  0  0  0  0
    8.3042    1.1265   -1.0880 O   0  0  0  0  0  0
    5.6041    0.0278    2.6741 O   0  0  0  0  0  0
    2.7669    1.0433    6.1890 O   0  0  0  0  0  0
    2.1312   -3.2913    8.2529 O   0  0  0  0  0  0
    1.5114   -3.1501    9.4534 C   0  0  0  0  0  0
    1.9718   -2.6109   10.4417 O   0  0  0  0  0  0
    0.1109   -3.6841    9.3317 C   0  0  0  0  0  0
   -0.0359   -5.0959    9.9213 C   0  0  0  0  0  0
    0.0512   -5.1062   11.4529 C   0  0  0  0  0  0
   -0.1829   -6.4941   12.0029 C   0  0  0  0  0  0
    0.2594   -7.5130   11.4834 O   0  0  0  0  0  0
   -0.9232   -6.5078   13.1211 O   0  0  0  0  0  0
   -1.4135   -5.6004    9.4701 C   0  0  0  0  0  0
   -2.4156   -4.9017    9.4798 O   0  0  0  0  0  0
   -1.4390   -6.8907    9.1091 O   0  0  0  0  0  0
    5.6292   -4.5732    7.6470 O   0  0  0  0  0  0
    6.2319   -4.8661    6.4349 C   0  0  0  0  0  0
    7.3580   -5.3298    6.3112 O   0  0  0  0  0  0
    5.3256   -4.5443    5.2394 C   0  0  0  0  0  0
    4.2769   -5.6391    4.8703 C   0  0  0  0  0  0
    3.3426   -5.3723    3.6760 C   0  0  0  0  0  0
    4.0547   -4.7773    2.4956 C   0  0  0  0  0  0
    5.2627   -4.8016    2.3045 O   0  0  0  0  0  0
    3.2113   -4.2077    1.6212 O   0  0  0  0  0  0
    4.8614   -7.0446    4.6830 C   0  0  0  0  0  0
    4.3262   -8.0455    5.1170 O   0  0  0  0  0  0
    5.9632   -7.1152    3.9069 O   0  0  0  0  0  0
    7.1711    0.0635   -3.2963 H   0  0  0  0  0  0
    5.9113    0.9523   -3.7901 H   0  0  0  0  0  0
    8.0724    1.9866   -0.6784 H   0  0  0  0  0  0
    6.2854    0.5543    3.1315 H   0  0  0  0  0  0
    2.5627    1.9586    6.4441 H   0  0  0  0  0  0
   -1.1734   -5.6292   13.4660 H   0  0  0  0  0  0
   -0.5692   -7.3556    9.1873 H   0  0  0  0  0  0
    3.7492   -3.9355    0.8480 H   0  0  0  0  0  0
    6.2281   -6.2721    3.4765 H   0  0  0  0  0  0
  1  2  1  0  0  0
  2  3  1  0  0  0
  3  4  1  0  0  0
  4  5  1  0  0  0
  5  6  1  0  0  0
  5  7  1  0  0  0
  7  8  1  0  0  0
  7 39  1  0  0  0
  8  9  1  0  0  0
  8 27  1  0  0  0
  9 10  1  0  0  0
 10 11  1  0  0  0
 10 12  1  0  0  0
 12 13  1  0  0  0
 13 14  1  0  0  0
 13 26  1  0  0  0
 14 15  1  0  0  0
 15 16  1  0  0  0
 16 17  1  0  0  0
 17 18  1  0  0  0
 18 19  1  0  0  0
 18 25  1  0  0  0
 19 20  1  0  0  0
 20 21  1  0  0  0
 20 24  1  0  0  0
 21 22  1  0  0  0
 21 23  1  0  0  0
 23 51  1  0  0  0
 23 52  1  0  0  0
 24 53  1  0  0  0
 25 54  1  0  0  0
 26 55  1  0  0  0
 27 28  1  0  0  0
 28 29  2  0  0  0
 28 30  1  0  0  0
 30 31  1  0  0  0
 31 32  1  0  0  0
 31 36  1  0  0  0
 32 33  1  0  0  0
 33 34  2  0  0  0
 33 35  1  0  0  0
 35 56  1  0  0  0
 36 37  2  0  0  0
 36 38  1  0  0  0
 38 57  1  0  0  0
 39 40  1  0  0  0
 40 41  2  0  0  0
 40 42  1  0  0  0
 42 43  1  0  0  0
 43 44  1  0  0  0
 43 48  1  0  0  0
 44 45  1  0  0  0
 45 46  2  0  0  0
 45 47  1  0  0  0
 47 58  1  0  0  0
 48 49  2  0  0  0
 48 50  1  0  0  0
 50 59  1  0  0  0
M  END
>  <AUTHOR>
    GENERATED BY OPEN BABEL 2.4.1

>  <CHROM.1>
-173.36281757,178.90137830,65.76226294,-43.45290542,-171.61565769,103.88696465
46.67886306,119.00823054,74.48061468,-57.22957144,-137.56593613,-87.04833845
177.17860551,127.77185580,-25.16342236,-73.55290860,-72.33136352,-76.99430122
-73.15760842,20.65175811,71.71172869,-55.17165885,-29.78583908,19.63804994
100.89231309,70.92665559,176.45272533,-42.49429335,39.86084324,-3.30789555
0.53965676,-154.83055396,-82.94951278,-179.82442209,42.98950611,137.57222280
18.42305988,-174.10800301,-5.34991970,3.55247394,-3.27098205,5.96633140,-2.27522316
0.95211626,-0.38033122

>  <COMPND>
    UNNAMED

>  <MASTER>
        0    0    0    0    0    0    0    0  109    0  109    0

>  <Name>
FB1.pdb

>  <RI>
0

>  <Rbt.Current_Directory>
/cluster/tossine/FB1_39T3/p3/0_clust01

>  <Rbt.Executable>
rbdock/0.1.0

>  <Rbt.Library>
librxdock.so/0.1.0

>  <Rbt.Parameter_File>
/cluster/rxdock/data/scripts/dock.prm

>  <Rbt.Receptor>
rx_4.prm

>  <SCORE>
20.2901

>  <SCORE.INTER>
8.07864

>  <SCORE.INTER.CONST>
1

>  <SCORE.INTER.POLAR>
-2.09235

>  <SCORE.INTER.REPUL>
1.3527

>  <SCORE.INTER.ROT>
32

>  <SCORE.INTER.VDW>
-28.9708

>  <SCORE.INTER.norm>
0.161573

>  <SCORE.INTRA>
12.2105

>  <SCORE.INTRA.DIHEDRAL>
16.9422

>  <SCORE.INTRA.DIHEDRAL.0>
47.3121

>  <SCORE.INTRA.POLAR>
1.08209

>  <SCORE.INTRA.POLAR.0>
-1.47808

>  <SCORE.INTRA.REPUL>
0

>  <SCORE.INTRA.REPUL.0>
0

>  <SCORE.INTRA.VDW>
0.060281

>  <SCORE.INTRA.VDW.0>
-2.78316

>  <SCORE.INTRA.norm>
0.24421

>  <SCORE.RESTR>
0.000925914

>  <SCORE.RESTR.CAVITY>
0.000925914

>  <SCORE.RESTR.norm>
1.85183e-05

>  <SCORE.SYSTEM>
0

>  <SCORE.SYSTEM.CONST>
0

>  <SCORE.SYSTEM.DIHEDRAL>
0

>  <SCORE.SYSTEM.norm>
0

>  <SCORE.heavy>
50

>  <SCORE.norm>
0.405801

$$$$
