FB1.pdb
  RxDock  10062023573D
librxdock.so/0.1.0
 59 58  0  0  0  0  0  0  0  0999 V2000
    5.2541   -6.7978    4.6263 C   0  0  0  0  0  0
    3.9832   -7.2021    5.3698 C   0  0  0  0  0  0
    3.9211   -6.5766    6.7731 C   0  0  0  0  0  0
    3.8547   -5.0290    6.7570 C   0  0  0  0  0  0
    3.8717   -4.3514    8.1716 C   0  0  0  0  0  0
    5.2882   -4.5125    8.7701 C   0  0  0  0  0  0
    3.4357   -2.8259    8.1483 C   0  0  0  0  0  0
    3.7366   -2.0056    6.8056 C   0  0  0  0  0  0
    2.7976   -1.9738    5.5228 C   0  0  0  0  0  0
    3.5575   -1.5935    4.1089 C   0  0  0  0  0  0
    4.7880   -0.7475    4.4319 C   0  0  0  0  0  0
    3.9814   -2.8234    3.1856 C   0  0  0  0  0  0
    4.4374   -2.6827    1.6393 C   0  0  0  0  0  0
    5.2106   -1.4298    1.1022 C   0  0  0  0  0  0
    5.6161   -1.3947   -0.4417 C   0  0  0  0  0  0
    5.7339   -0.0739   -1.2997 C   0  0  0  0  0  0
    6.5730    1.1152   -0.7616 C   0  0  0  0  0  0
    5.9006    2.5409   -0.8292 C   0  0  0  0  0  0
    6.8509    3.7328   -0.9990 C   0  0  0  0  0  0
    7.5909    3.8983   -2.3566 C   0  0  0  0  0  0
    8.1133    5.2942   -2.8082 C   0  0  0  0  0  0
    7.1487    6.1490   -3.6183 C   0  0  0  0  0  0
    8.6520    6.0498   -1.6614 N   0  0  0  0  0  0
    8.7789    3.0756   -2.2305 O   0  0  0  0  0  0
    4.9726    2.5403   -1.9194 O   0  0  0  0  0  0
    5.3199   -3.7944    1.4117 O   0  0  0  0  0  0
    3.8555   -0.6115    7.1991 O   0  0  0  0  0  0
    4.8296   -0.3042    8.0946 C   0  0  0  0  0  0
    5.4549   -1.0937    8.7766 O   0  0  0  0  0  0
    5.0833    1.1768    8.0324 C   0  0  0  0  0  0
    3.8365    2.0045    8.3828 C   0  0  0  0  0  0
    2.6911    1.7950    7.3841 C   0  0  0  0  0  0
    3.0674    2.2978    6.0097 C   0  0  0  0  0  0
    3.2467    1.5632    5.0443 O   0  0  0  0  0  0
    3.1864    3.6321    5.9429 O   0  0  0  0  0  0
    3.4042    1.5444    9.7819 C   0  0  0  0  0  0
    2.7713    0.5186    9.9807 O   0  0  0  0  0  0
    3.7361    2.3882   10.7687 O   0  0  0  0  0  0
    2.0302   -2.6638    8.5936 O   0  0  0  0  0  0
    1.6458   -3.2493    9.7884 C   0  0  0  0  0  0
    2.4033   -3.8304   10.5545 O   0  0  0  0  0  0
    0.1438   -3.0914   10.0592 C   0  0  0  0  0  0
   -0.8063   -3.6733    8.9669 C   0  0  0  0  0  0
   -1.2565   -2.7400    7.8282 C   0  0  0  0  0  0
   -0.1085   -2.1898    7.0322 C   0  0  0  0  0  0
    0.4364   -1.1103    7.2182 O   0  0  0  0  0  0
    0.2975   -3.0305    6.0685 O   0  0  0  0  0  0
   -0.3127   -4.9728    8.3190 C   0  0  0  0  0  0
    0.8626   -5.2032    8.1135 O   0  0  0  0  0  0
   -1.2638   -5.9012    8.0851 O   0  0  0  0  0  0
    7.8982    6.2393   -1.0024 H   0  0  0  0  0  0
    8.9530    6.9704   -1.9891 H   0  0  0  0  0  0
    8.4377    2.1595   -2.1554 H   0  0  0  0  0  0
    4.2168    1.9749   -1.6752 H   0  0  0  0  0  0
    5.4378   -3.8931    0.4521 H   0  0  0  0  0  0
    3.4394    3.9845    5.0681 H   0  0  0  0  0  0
    4.2529    3.1792   10.4753 H   0  0  0  0  0  0
   -0.1559   -3.8845    6.2308 H   0  0  0  0  0  0
   -0.9821   -6.6591    7.5260 H   0  0  0  0  0  0
  1  2  1  0  0  0
  2  3  1  0  0  0
  3  4  1  0  0  0
  4  5  1  0  0  0
  5  6  1  0  0  0
  5  7  1  0  0  0
  7  8  1  0  0  0
  7 39  1  0  0  0
  8  9  1  0  0  0
  8 27  1  0  0  0
  9 10  1  0  0  0
 10 11  1  0  0  0
 10 12  1  0  0  0
 12 13  1  0  0  0
 13 14  1  0  0  0
 13 26  1  0  0  0
 14 15  1  0  0  0
 15 16  1  0  0  0
 16 17  1  0  0  0
 17 18  1  0  0  0
 18 19  1  0  0  0
 18 25  1  0  0  0
 19 20  1  0  0  0
 20 21  1  0  0  0
 20 24  1  0  0  0
 21 22  1  0  0  0
 21 23  1  0  0  0
 23 51  1  0  0  0
 23 52  1  0  0  0
 24 53  1  0  0  0
 25 54  1  0  0  0
 26 55  1  0  0  0
 27 28  1  0  0  0
 28 29  2  0  0  0
 28 30  1  0  0  0
 30 31  1  0  0  0
 31 32  1  0  0  0
 31 36  1  0  0  0
 32 33  1  0  0  0
 33 34  2  0  0  0
 33 35  1  0  0  0
 35 56  1  0  0  0
 36 37  2  0  0  0
 36 38  1  0  0  0
 38 57  1  0  0  0
 39 40  1  0  0  0
 40 41  2  0  0  0
 40 42  1  0  0  0
 42 43  1  0  0  0
 43 44  1  0  0  0
 43 48  1  0  0  0
 44 45  1  0  0  0
 45 46  2  0  0  0
 45 47  1  0  0  0
 47 58  1  0  0  0
 48 49  2  0  0  0
 48 50  1  0  0  0
 50 59  1  0  0  0
M  END
>  <AUTHOR>
    GENERATED BY OPEN BABEL 2.4.1

>  <CHROM.1>
63.39419818,-176.71115905,71.02991584,-29.22577723,84.70122334,51.13908852
-156.44820523,59.90746085,-26.32457209,166.18415882,32.79144186,179.85819960
165.39694411,149.12157830,50.41340908,-132.60286573,-149.94728908,69.28589027
70.56339309,156.52091669,-89.75372226,65.00239511,-64.08794440,-13.92379984
60.50619092,-63.46491123,-64.66017449,-79.64079710,111.57062264,179.30697720
-2.64880836,4.60499873,57.92093444,-91.01825478,59.31546532,-34.95695651
-94.92953279,-10.48011082,169.28644967,3.78403242,-0.94328038,5.04889550
-3.03724457,1.16045771,0.46837595

>  <COMPND>
    UNNAMED

>  <MASTER>
        0    0    0    0    0    0    0    0  109    0  109    0

>  <Name>
FB1.pdb

>  <RI>
0

>  <Rbt.Current_Directory>
/cluster/tossine/FB1_39T3/p3/0_clust01

>  <Rbt.Executable>
rbdock/0.1.0

>  <Rbt.Library>
librxdock.so/0.1.0

>  <Rbt.Parameter_File>
/cluster/rxdock/data/scripts/dock.prm

>  <Rbt.Receptor>
rx_2.prm

>  <SCORE>
2.81338

>  <SCORE.INTER>
-7.19957

>  <SCORE.INTER.CONST>
1

>  <SCORE.INTER.POLAR>
-4.25234

>  <SCORE.INTER.REPUL>
0.242491

>  <SCORE.INTER.ROT>
32

>  <SCORE.INTER.VDW>
-31.3541

>  <SCORE.INTER.norm>
-0.143991

>  <SCORE.INTRA>
9.99451

>  <SCORE.INTRA.DIHEDRAL>
6.07407

>  <SCORE.INTRA.DIHEDRAL.0>
47.3121

>  <SCORE.INTRA.POLAR>
1.47808

>  <SCORE.INTRA.POLAR.0>
-1.47808

>  <SCORE.INTRA.REPUL>
0.0233816

>  <SCORE.INTRA.REPUL.0>
0

>  <SCORE.INTRA.VDW>
1.8151

>  <SCORE.INTRA.VDW.0>
-2.78316

>  <SCORE.INTRA.norm>
0.19989

>  <SCORE.RESTR>
0.0184424

>  <SCORE.RESTR.CAVITY>
0.0184424

>  <SCORE.RESTR.norm>
0.000368848

>  <SCORE.SYSTEM>
0

>  <SCORE.SYSTEM.CONST>
0

>  <SCORE.SYSTEM.DIHEDRAL>
0

>  <SCORE.SYSTEM.norm>
0

>  <SCORE.heavy>
50

>  <SCORE.norm>
0.0562677

$$$$
