FB1.pdb
  RxDock  10062023533D
librxdock.so/0.1.0
 59 58  0  0  0  0  0  0  0  0999 V2000
   -0.1746   -7.7919   11.6304 C   0  0  0  0  0  0
   -0.2259   -8.2183   10.1652 C   0  0  0  0  0  0
   -0.2227   -7.0062    9.2190 C   0  0  0  0  0  0
    1.1347   -6.2612    9.1743 C   0  0  0  0  0  0
    2.3153   -7.0749    8.5380 C   0  0  0  0  0  0
    2.1014   -7.1244    7.0075 C   0  0  0  0  0  0
    3.7485   -6.4932    8.8922 C   0  0  0  0  0  0
    4.1813   -5.1349    8.1615 C   0  0  0  0  0  0
    4.6245   -5.0161    6.6391 C   0  0  0  0  0  0
    3.7998   -3.8929    5.7561 C   0  0  0  0  0  0
    4.2946   -2.5036    6.1549 C   0  0  0  0  0  0
    3.8739   -4.0524    4.1706 C   0  0  0  0  0  0
    3.5655   -5.4312    3.3816 C   0  0  0  0  0  0
    3.3006   -5.4744    1.8376 C   0  0  0  0  0  0
    4.3631   -4.7827    0.8672 C   0  0  0  0  0  0
    4.8867   -3.3020    1.0338 C   0  0  0  0  0  0
    5.8009   -2.6867   -0.0585 C   0  0  0  0  0  0
    5.1156   -2.3318   -1.4345 C   0  0  0  0  0  0
    5.8660   -1.3392   -2.3312 C   0  0  0  0  0  0
    6.0028    0.1327   -1.8486 C   0  0  0  0  0  0
    6.6007    0.4535   -0.4468 C   0  0  0  0  0  0
    5.6173    0.5017    0.7143 C   0  0  0  0  0  0
    7.7336   -0.4407   -0.1415 N   0  0  0  0  0  0
    6.9145    0.7467   -2.7950 O   0  0  0  0  0  0
    4.9285   -3.5505   -2.1621 O   0  0  0  0  0  0
    4.7348   -6.2425    3.5846 O   0  0  0  0  0  0
    3.0482   -4.2321    8.2778 O   0  0  0  0  0  0
    2.7802   -3.7346    9.5132 C   0  0  0  0  0  0
    3.3271   -4.0542   10.5516 O   0  0  0  0  0  0
    1.7577   -2.6408    9.3742 C   0  0  0  0  0  0
    2.1885   -1.3384   10.0676 C   0  0  0  0  0  0
    3.1055   -0.4788    9.1881 C   0  0  0  0  0  0
    2.3399    0.1348    8.0389 C   0  0  0  0  0  0
    2.1624    1.3412    7.9094 O   0  0  0  0  0  0
    1.8707   -0.7691    7.1662 O   0  0  0  0  0  0
    0.8924   -0.5766   10.3771 C   0  0  0  0  0  0
    0.6370   -0.1150   11.4790 O   0  0  0  0  0  0
    0.0365   -0.5007    9.3487 O   0  0  0  0  0  0
    3.9493   -6.4213   10.3600 O   0  0  0  0  0  0
    3.7799   -7.5759   11.1058 C   0  0  0  0  0  0
    3.3809   -7.6054   12.2626 O   0  0  0  0  0  0
    4.1500   -8.8394   10.3178 C   0  0  0  0  0  0
    3.7848  -10.1943   11.0000 C   0  0  0  0  0  0
    2.2942  -10.5386   11.1727 C   0  0  0  0  0  0
    1.9609  -11.0261   12.5532 C   0  0  0  0  0  0
    1.4945  -12.1229   12.8294 O   0  0  0  0  0  0
    2.2494  -10.1210   13.5007 O   0  0  0  0  0  0
    4.4648  -11.4227   10.3826 C   0  0  0  0  0  0
    5.1318  -11.3681    9.3684 O   0  0  0  0  0  0
    4.3649  -12.5617   11.0996 O   0  0  0  0  0  0
    8.3278    0.0003    0.5593 H   0  0  0  0  0  0
    8.3218   -0.5187   -0.9742 H   0  0  0  0  0  0
    6.4379    0.7171   -3.6513 H   0  0  0  0  0  0
    4.3354   -3.3679   -2.9140 H   0  0  0  0  0  0
    5.4940   -5.7790    3.1931 H   0  0  0  0  0  0
    1.3918   -0.3990    6.4000 H   0  0  0  0  0  0
   -0.7553    0.0686    9.5154 H   0  0  0  0  0  0
    2.7022   -9.3770   13.0504 H   0  0  0  0  0  0
    4.8020  -13.3474   10.7022 H   0  0  0  0  0  0
  1  2  1  0  0  0
  2  3  1  0  0  0
  3  4  1  0  0  0
  4  5  1  0  0  0
  5  6  1  0  0  0
  5  7  1  0  0  0
  7  8  1  0  0  0
  7 39  1  0  0  0
  8  9  1  0  0  0
  8 27  1  0  0  0
  9 10  1  0  0  0
 10 11  1  0  0  0
 10 12  1  0  0  0
 12 13  1  0  0  0
 13 14  1  0  0  0
 13 26  1  0  0  0
 14 15  1  0  0  0
 15 16  1  0  0  0
 16 17  1  0  0  0
 17 18  1  0  0  0
 18 19  1  0  0  0
 18 25  1  0  0  0
 19 20  1  0  0  0
 20 21  1  0  0  0
 20 24  1  0  0  0
 21 22  1  0  0  0
 21 23  1  0  0  0
 23 51  1  0  0  0
 23 52  1  0  0  0
 24 53  1  0  0  0
 25 54  1  0  0  0
 26 55  1  0  0  0
 27 28  1  0  0  0
 28 29  2  0  0  0
 28 30  1  0  0  0
 30 31  1  0  0  0
 31 32  1  0  0  0
 31 36  1  0  0  0
 32 33  1  0  0  0
 33 34  2  0  0  0
 33 35  1  0  0  0
 35 56  1  0  0  0
 36 37  2  0  0  0
 36 38  1  0  0  0
 38 57  1  0  0  0
 39 40  1  0  0  0
 40 41  2  0  0  0
 40 42  1  0  0  0
 42 43  1  0  0  0
 43 44  1  0  0  0
 43 48  1  0  0  0
 44 45  1  0  0  0
 45 46  2  0  0  0
 45 47  1  0  0  0
 47 58  1  0  0  0
 48 49  2  0  0  0
 48 50  1  0  0  0
 50 59  1  0  0  0
M  END
>  <AUTHOR>
    GENERATED BY OPEN BABEL 2.4.1

>  <CHROM.1>
70.55386110,66.92792832,73.78067831,-73.49532468,-74.47096567,55.23234202
126.67474228,70.56690479,74.72173074,50.66281452,164.49510725,52.35278998
-61.50737276,-51.52837590,-173.36177926,71.61407773,161.03768515,-67.19042081
167.64792618,53.96888889,-88.78648530,64.29027492,157.42444739,-6.42466629
-128.36930753,83.72176219,71.06683903,130.05749726,114.78584298,-178.43663743
-173.92963912,-148.88020538,-171.00594447,66.97873591,-132.82163720,-6.70830848
-119.39978980,-5.62153849,-179.95925140,3.40657714,-4.81176095,6.83981026
2.15241270,-1.16560761,2.70264066

>  <COMPND>
    UNNAMED

>  <MASTER>
        0    0    0    0    0    0    0    0  109    0  109    0

>  <Name>
FB1.pdb

>  <RI>
0

>  <Rbt.Current_Directory>
/cluster/tossine/FB1_39T3/p3/0_clust01

>  <Rbt.Executable>
rbdock/0.1.0

>  <Rbt.Library>
librxdock.so/0.1.0

>  <Rbt.Parameter_File>
/cluster/rxdock/data/scripts/dock.prm

>  <Rbt.Receptor>
rx_2.prm

>  <SCORE>
-5.5719

>  <SCORE.INTER>
-7.13477

>  <SCORE.INTER.CONST>
1

>  <SCORE.INTER.POLAR>
-3.89224

>  <SCORE.INTER.REPUL>
0.21759

>  <SCORE.INTER.ROT>
32

>  <SCORE.INTER.VDW>
-32.3891

>  <SCORE.INTER.norm>
-0.142695

>  <SCORE.INTRA>
1.56287

>  <SCORE.INTRA.DIHEDRAL>
-5.04716

>  <SCORE.INTRA.DIHEDRAL.0>
47.3121

>  <SCORE.INTRA.POLAR>
0.478077

>  <SCORE.INTRA.POLAR.0>
-1.47808

>  <SCORE.INTRA.REPUL>
0.241789

>  <SCORE.INTRA.REPUL.0>
0

>  <SCORE.INTRA.VDW>
1.25205

>  <SCORE.INTRA.VDW.0>
-2.78316

>  <SCORE.INTRA.norm>
0.0312575

>  <SCORE.RESTR>
0

>  <SCORE.RESTR.CAVITY>
0

>  <SCORE.RESTR.norm>
0

>  <SCORE.SYSTEM>
0

>  <SCORE.SYSTEM.CONST>
0

>  <SCORE.SYSTEM.DIHEDRAL>
0

>  <SCORE.SYSTEM.norm>
0

>  <SCORE.heavy>
50

>  <SCORE.norm>
-0.111438

$$$$
