FB1.pdb
  RxDock  10062022343D
librxdock.so/0.1.0
 59 58  0  0  0  0  0  0  0  0999 V2000
    2.0590   -4.9474    3.0884 C   0  0  0  0  0  0
    2.5464   -3.7235    2.3165 C   0  0  0  0  0  0
    3.6917   -3.0065    3.0504 C   0  0  0  0  0  0
    4.1587   -1.7079    2.3466 C   0  0  0  0  0  0
    5.1543   -0.8260    3.1783 C   0  0  0  0  0  0
    5.2845    0.5480    2.4813 C   0  0  0  0  0  0
    4.7301   -0.6537    4.6976 C   0  0  0  0  0  0
    3.2744   -0.0477    4.9804 C   0  0  0  0  0  0
    2.4979   -0.1401    6.3649 C   0  0  0  0  0  0
    1.2773   -1.2489    6.4096 C   0  0  0  0  0  0
    1.8391   -2.6059    5.9890 C   0  0  0  0  0  0
    0.5109   -1.3951    7.8010 C   0  0  0  0  0  0
    1.1197   -2.1477    9.0978 C   0  0  0  0  0  0
    0.5607   -3.5180    9.6133 C   0  0  0  0  0  0
    1.3726   -4.2866   10.7532 C   0  0  0  0  0  0
    0.7992   -5.4970   11.5903 C   0  0  0  0  0  0
    1.5196   -6.8703   11.5406 C   0  0  0  0  0  0
    1.9864   -7.4725   12.9221 C   0  0  0  0  0  0
    1.9695   -9.0019   13.0371 C   0  0  0  0  0  0
    2.9249   -9.8206   12.1232 C   0  0  0  0  0  0
    2.9748  -11.3741   12.2206 C   0  0  0  0  0  0
    4.0088  -12.0747   11.3503 C   0  0  0  0  0  0
    3.0864  -11.8093   13.6258 N   0  0  0  0  0  0
    2.4703   -9.5434   10.7740 O   0  0  0  0  0  0
    3.3178   -7.0120   13.1773 O   0  0  0  0  0  0
    2.4943   -2.4048    8.7644 O   0  0  0  0  0  0
    3.3695    1.3783    4.7157 O   0  0  0  0  0  0
    4.2869    2.0788    5.4319 C   0  0  0  0  0  0
    5.0221    1.6320    6.2917 O   0  0  0  0  0  0
    4.3180    3.4903    4.9141 C   0  0  0  0  0  0
    5.3197    3.6749    3.7629 C   0  0  0  0  0  0
    4.6429    3.6629    2.3862 C   0  0  0  0  0  0
    5.6307    3.9901    1.2905 C   0  0  0  0  0  0
    5.5713    5.0049    0.6046 O   0  0  0  0  0  0
    6.5863    3.0615    1.1377 O   0  0  0  0  0  0
    5.9947    5.0320    4.0046 C   0  0  0  0  0  0
    5.5057    5.9047    4.7058 O   0  0  0  0  0  0
    7.1467    5.2027    3.3414 O   0  0  0  0  0  0
    4.9704   -1.8998    5.4653 O   0  0  0  0  0  0
    5.2902   -1.7950    6.8087 C   0  0  0  0  0  0
    5.1835   -0.7718    7.4721 O   0  0  0  0  0  0
    5.8013   -3.1189    7.3922 C   0  0  0  0  0  0
    4.8799   -4.3581    7.1689 C   0  0  0  0  0  0
    5.0812   -5.1876    5.8875 C   0  0  0  0  0  0
    4.0294   -6.2427    5.7005 C   0  0  0  0  0  0
    4.2244   -7.3810    5.2971 O   0  0  0  0  0  0
    2.8059   -5.8148    6.0474 O   0  0  0  0  0  0
    4.8395   -5.3427    8.3441 C   0  0  0  0  0  0
    5.4875   -6.3705    8.3670 O   0  0  0  0  0  0
    4.1147   -4.9432    9.4101 O   0  0  0  0  0  0
    2.4374  -11.2683   14.1956 H   0  0  0  0  0  0
    4.0146  -11.5577   13.9729 H   0  0  0  0  0  0
    3.1590   -9.9350   10.1963 H   0  0  0  0  0  0
    3.2828   -6.0497   13.3300 H   0  0  0  0  0  0
    2.9632   -1.5538    8.7450 H   0  0  0  0  0  0
    6.4912    2.4914    0.3507 H   0  0  0  0  0  0
    7.4663    4.3989    2.8612 H   0  0  0  0  0  0
    2.1845   -6.5457    5.8451 H   0  0  0  0  0  0
    3.5605   -4.1444    9.2651 H   0  0  0  0  0  0
  1  2  1  0  0  0
  2  3  1  0  0  0
  3  4  1  0  0  0
  4  5  1  0  0  0
  5  6  1  0  0  0
  5  7  1  0  0  0
  7  8  1  0  0  0
  7 39  1  0  0  0
  8  9  1  0  0  0
  8 27  1  0  0  0
  9 10  1  0  0  0
 10 11  1  0  0  0
 10 12  1  0  0  0
 12 13  1  0  0  0
 13 14  1  0  0  0
 13 26  1  0  0  0
 14 15  1  0  0  0
 15 16  1  0  0  0
 16 17  1  0  0  0
 17 18  1  0  0  0
 18 19  1  0  0  0
 18 25  1  0  0  0
 19 20  1  0  0  0
 20 21  1  0  0  0
 20 24  1  0  0  0
 21 22  1  0  0  0
 21 23  1  0  0  0
 23 51  1  0  0  0
 23 52  1  0  0  0
 24 53  1  0  0  0
 25 54  1  0  0  0
 26 55  1  0  0  0
 27 28  1  0  0  0
 28 29  2  0  0  0
 28 30  1  0  0  0
 30 31  1  0  0  0
 31 32  1  0  0  0
 31 36  1  0  0  0
 32 33  1  0  0  0
 33 34  2  0  0  0
 33 35  1  0  0  0
 35 56  1  0  0  0
 36 37  2  0  0  0
 36 38  1  0  0  0
 38 57  1  0  0  0
 39 40  1  0  0  0
 40 41  2  0  0  0
 40 42  1  0  0  0
 42 43  1  0  0  0
 43 44  1  0  0  0
 43 48  1  0  0  0
 44 45  1  0  0  0
 45 46  2  0  0  0
 45 47  1  0  0  0
 47 58  1  0  0  0
 48 49  2  0  0  0
 48 50  1  0  0  0
 50 59  1  0  0  0
M  END
>  <AUTHOR>
    GENERATED BY OPEN BABEL 2.4.1

>  <CHROM.1>
-176.41072254,170.36046387,-168.20873033,-56.49651603,162.99495053,149.05780081
-103.97498330,-58.06626505,54.20878847,-75.08647134,-109.89355323,170.51973932
69.53745289,166.29432235,120.21853226,123.43085866,147.58338947,64.33811330
67.45587115,178.54475662,-176.02350400,170.83295962,44.29857460,-1.37829983
-89.05720934,99.80302012,174.05642090,-20.40591867,-114.09872291,105.69773251
-6.43558504,12.35215262,-53.07539625,89.13112960,-172.71566950,-99.66822156
-139.51895020,176.84780598,10.45893698,3.77161619,-2.65843802,6.79983537
-2.23060785,1.29128076,0.02751464

>  <COMPND>
    UNNAMED

>  <MASTER>
        0    0    0    0    0    0    0    0  109    0  109    0

>  <Name>
FB1.pdb

>  <RI>
0

>  <Rbt.Current_Directory>
/cluster/tossine/FB1_39T3/p3/0_clust01

>  <Rbt.Executable>
rbdock/0.1.0

>  <Rbt.Library>
librxdock.so/0.1.0

>  <Rbt.Parameter_File>
/cluster/rxdock/data/scripts/dock.prm

>  <Rbt.Receptor>
rx_0.prm

>  <SCORE>
17.9678

>  <SCORE.INTER>
7.34756

>  <SCORE.INTER.CONST>
1

>  <SCORE.INTER.POLAR>
-2.30867

>  <SCORE.INTER.REPUL>
0.114477

>  <SCORE.INTER.ROT>
32

>  <SCORE.INTER.VDW>
-22.7753

>  <SCORE.INTER.norm>
0.146951

>  <SCORE.INTRA>
10.6203

>  <SCORE.INTRA.DIHEDRAL>
28.7141

>  <SCORE.INTRA.DIHEDRAL.0>
47.3121

>  <SCORE.INTRA.POLAR>
0.189866

>  <SCORE.INTRA.POLAR.0>
-1.47808

>  <SCORE.INTRA.REPUL>
0.0373056

>  <SCORE.INTRA.REPUL.0>
0

>  <SCORE.INTRA.VDW>
-4.56882

>  <SCORE.INTRA.VDW.0>
-2.78316

>  <SCORE.INTRA.norm>
0.212406

>  <SCORE.RESTR>
0

>  <SCORE.RESTR.CAVITY>
0

>  <SCORE.RESTR.norm>
0

>  <SCORE.SYSTEM>
0

>  <SCORE.SYSTEM.CONST>
0

>  <SCORE.SYSTEM.DIHEDRAL>
0

>  <SCORE.SYSTEM.norm>
0

>  <SCORE.heavy>
50

>  <SCORE.norm>
0.359357

$$$$
