FB1.pdb
  RxDock  10072000333D
librxdock.so/0.1.0
 59 58  0  0  0  0  0  0  0  0999 V2000
    1.9421   -6.2321   10.4770 C   0  0  0  0  0  0
    2.1107   -4.9001    9.7499 C   0  0  0  0  0  0
    1.4727   -4.9302    8.3512 C   0  0  0  0  0  0
    1.6581   -3.6118    7.5593 C   0  0  0  0  0  0
    0.9275   -3.5650    6.1720 C   0  0  0  0  0  0
    0.2388   -2.1878    6.0322 C   0  0  0  0  0  0
    1.8880   -3.8468    4.9408 C   0  0  0  0  0  0
    3.1513   -2.8769    4.7690 C   0  0  0  0  0  0
    3.3945   -1.9003    3.5380 C   0  0  0  0  0  0
    4.3120   -2.5270    2.3187 C   0  0  0  0  0  0
    3.5221   -3.6472    1.6438 C   0  0  0  0  0  0
    4.8190   -1.4910    1.2166 C   0  0  0  0  0  0
    5.9844   -0.3967    1.4676 C   0  0  0  0  0  0
    6.1012    0.9158    0.6193 C   0  0  0  0  0  0
    5.6132    0.8812   -0.9005 C   0  0  0  0  0  0
    5.4419    2.1624   -1.8082 C   0  0  0  0  0  0
    6.6984    2.9506   -2.2633 C   0  0  0  0  0  0
    7.3272    3.9444   -1.2116 C   0  0  0  0  0  0
    8.2845    5.0059   -1.7677 C   0  0  0  0  0  0
    9.5649    4.5280   -2.5095 C   0  0  0  0  0  0
   10.5107    3.4760   -1.8582 C   0  0  0  0  0  0
   11.6464    2.9555   -2.7281 C   0  0  0  0  0  0
   11.0192    3.9587   -0.5603 N   0  0  0  0  0  0
    9.0745    3.8944   -3.7186 O   0  0  0  0  0  0
    6.2544    4.6089   -0.5355 O   0  0  0  0  0  0
    5.7891    0.0473    2.8209 O   0  0  0  0  0  0
    3.1517   -2.0009    5.9288 O   0  0  0  0  0  0
    4.2264   -2.0736    6.7565 C   0  0  0  0  0  0
    5.1669   -2.8374    6.6489 O   0  0  0  0  0  0
    4.1139   -0.9778    7.7801 C   0  0  0  0  0  0
    3.4760    0.2992    7.2102 C   0  0  0  0  0  0
    2.3549    0.8462    8.1032 C   0  0  0  0  0  0
    2.1534    2.3270    7.8796 C   0  0  0  0  0  0
    2.2476    2.8663    6.7823 O   0  0  0  0  0  0
    1.8581    3.0014    9.0007 O   0  0  0  0  0  0
    4.6113    1.3266    7.1038 C   0  0  0  0  0  0
    5.0274    1.7528    6.0372 O   0  0  0  0  0  0
    5.1459    1.6838    8.2797 O   0  0  0  0  0  0
    2.2751   -5.2773    4.8801 O   0  0  0  0  0  0
    3.3758   -5.6937    5.6102 C   0  0  0  0  0  0
    3.7728   -5.1593    6.6374 O   0  0  0  0  0  0
    4.0599   -6.9181    4.9880 C   0  0  0  0  0  0
    5.6189   -6.8725    4.9418 C   0  0  0  0  0  0
    6.3885   -7.1061    6.2547 C   0  0  0  0  0  0
    7.6298   -6.2684    6.3639 C   0  0  0  0  0  0
    8.0399   -5.4867    5.5170 O   0  0  0  0  0  0
    8.2678   -6.4462    7.5308 O   0  0  0  0  0  0
    6.2521   -7.7782    3.8784 C   0  0  0  0  0  0
    7.3764   -7.6073    3.4501 O   0  0  0  0  0  0
    5.5173   -8.8518    3.5196 O   0  0  0  0  0  0
   10.2311    4.1550    0.0552 H   0  0  0  0  0  0
   11.4733    4.8636   -0.7035 H   0  0  0  0  0  0
    8.6111    4.6107   -4.2019 H   0  0  0  0  0  0
    6.6382    5.1882    0.1484 H   0  0  0  0  0  0
    4.9295    0.4982    2.8683 H   0  0  0  0  0  0
    1.5222    3.9082    8.8651 H   0  0  0  0  0  0
    5.7778    2.4434    8.2290 H   0  0  0  0  0  0
    7.6973   -7.0263    8.0779 H   0  0  0  0  0  0
    6.0247   -9.5934    3.1211 H   0  0  0  0  0  0
  1  2  1  0  0  0
  2  3  1  0  0  0
  3  4  1  0  0  0
  4  5  1  0  0  0
  5  6  1  0  0  0
  5  7  1  0  0  0
  7  8  1  0  0  0
  7 39  1  0  0  0
  8  9  1  0  0  0
  8 27  1  0  0  0
  9 10  1  0  0  0
 10 11  1  0  0  0
 10 12  1  0  0  0
 12 13  1  0  0  0
 13 14  1  0  0  0
 13 26  1  0  0  0
 14 15  1  0  0  0
 15 16  1  0  0  0
 16 17  1  0  0  0
 17 18  1  0  0  0
 18 19  1  0  0  0
 18 25  1  0  0  0
 19 20  1  0  0  0
 20 21  1  0  0  0
 20 24  1  0  0  0
 21 22  1  0  0  0
 21 23  1  0  0  0
 23 51  1  0  0  0
 23 52  1  0  0  0
 24 53  1  0  0  0
 25 54  1  0  0  0
 26 55  1  0  0  0
 27 28  1  0  0  0
 28 29  2  0  0  0
 28 30  1  0  0  0
 30 31  1  0  0  0
 31 32  1  0  0  0
 31 36  1  0  0  0
 32 33  1  0  0  0
 33 34  2  0  0  0
 33 35  1  0  0  0
 35 56  1  0  0  0
 36 37  2  0  0  0
 36 38  1  0  0  0
 38 57  1  0  0  0
 39 40  1  0  0  0
 40 41  2  0  0  0
 40 42  1  0  0  0
 42 43  1  0  0  0
 43 44  1  0  0  0
 43 48  1  0  0  0
 44 45  1  0  0  0
 45 46  2  0  0  0
 45 47  1  0  0  0
 47 58  1  0  0  0
 48 49  2  0  0  0
 48 50  1  0  0  0
 50 59  1  0  0  0
M  END
>  <AUTHOR>
    GENERATED BY OPEN BABEL 2.4.1

>  <CHROM.1>
-178.22442352,-175.54651824,135.93760549,-57.83316739,-116.34475758,-86.75646704
-93.39164687,117.82195463,67.97472493,72.92149648,-156.48443203,-31.04569515
-64.53453274,169.44376711,69.10442568,-79.95040783,-162.62401677,-60.10400532
176.99199708,-50.61852176,173.17330742,61.81279596,58.29499574,-2.96545559
-34.67163080,131.36046671,155.86241369,113.57298393,37.10273985,-166.45319319
-171.04693894,27.52154181,136.52176674,74.99944674,-143.90385175,159.04988303
-1.21858903,-5.98043499,-157.85538245,5.04961114,-1.48661055,4.05848836,2.23704900
-0.93453960,2.91163249

>  <COMPND>
    UNNAMED

>  <MASTER>
        0    0    0    0    0    0    0    0  109    0  109    0

>  <Name>
FB1.pdb

>  <RI>
0

>  <Rbt.Current_Directory>
/cluster/tossine/FB1_39T3/p3/0_clust01

>  <Rbt.Executable>
rbdock/0.1.0

>  <Rbt.Library>
librxdock.so/0.1.0

>  <Rbt.Parameter_File>
/cluster/rxdock/data/scripts/dock.prm

>  <Rbt.Receptor>
rx_3.prm

>  <SCORE>
39.6758

>  <SCORE.INTER>
24.703

>  <SCORE.INTER.CONST>
1

>  <SCORE.INTER.POLAR>
-3.12162

>  <SCORE.INTER.REPUL>
0.29936

>  <SCORE.INTER.ROT>
32

>  <SCORE.INTER.VDW>
-3.5803

>  <SCORE.INTER.norm>
0.49406

>  <SCORE.INTRA>
14.6763

>  <SCORE.INTRA.DIHEDRAL>
19.034

>  <SCORE.INTRA.DIHEDRAL.0>
47.3121

>  <SCORE.INTRA.POLAR>
1.47808

>  <SCORE.INTRA.POLAR.0>
-1.47808

>  <SCORE.INTRA.REPUL>
0.129867

>  <SCORE.INTRA.REPUL.0>
0

>  <SCORE.INTRA.VDW>
-0.515465

>  <SCORE.INTRA.VDW.0>
-2.78316

>  <SCORE.INTRA.norm>
0.293527

>  <SCORE.RESTR>
0.296445

>  <SCORE.RESTR.CAVITY>
0.296445

>  <SCORE.RESTR.norm>
0.00592889

>  <SCORE.SYSTEM>
0

>  <SCORE.SYSTEM.CONST>
0

>  <SCORE.SYSTEM.DIHEDRAL>
0

>  <SCORE.SYSTEM.norm>
0

>  <SCORE.heavy>
50

>  <SCORE.norm>
0.793515

$$$$
