FB1.pdb
  RxDock  10062023583D
librxdock.so/0.1.0
 59 58  0  0  0  0  0  0  0  0999 V2000
   -0.5179   -0.3534   11.5418 C   0  0  0  0  0  0
    1.0016   -0.4129   11.4048 C   0  0  0  0  0  0
    1.4388   -0.4649    9.9316 C   0  0  0  0  0  0
    1.1835   -1.8371    9.2596 C   0  0  0  0  0  0
    1.8717   -3.0574    9.9651 C   0  0  0  0  0  0
    0.8621   -3.6764   10.9591 C   0  0  0  0  0  0
    2.4137   -4.1516    8.9516 C   0  0  0  0  0  0
    1.3202   -4.9724    8.1169 C   0  0  0  0  0  0
    1.5808   -5.6834    6.7187 C   0  0  0  0  0  0
    2.5295   -4.8354    5.6689 C   0  0  0  0  0  0
    3.8797   -5.5414    5.5565 C   0  0  0  0  0  0
    1.9269   -4.5983    4.2110 C   0  0  0  0  0  0
    2.4821   -3.4925    3.1681 C   0  0  0  0  0  0
    2.2995   -3.6332    1.6180 C   0  0  0  0  0  0
    3.5924   -3.9199    0.7261 C   0  0  0  0  0  0
    4.9778   -3.1833    0.9067 C   0  0  0  0  0  0
    6.1927   -3.6175    0.0447 C   0  0  0  0  0  0
    6.3939   -2.8586   -1.3239 C   0  0  0  0  0  0
    5.2062   -2.8808   -2.2941 C   0  0  0  0  0  0
    5.3847   -2.2258   -3.6932 C   0  0  0  0  0  0
    6.4311   -2.7859   -4.7015 C   0  0  0  0  0  0
    5.9796   -2.9049   -6.1504 C   0  0  0  0  0  0
    7.7031   -2.0447   -4.6047 N   0  0  0  0  0  0
    4.1020   -2.4008   -4.3473 O   0  0  0  0  0  0
    6.7153   -1.4948   -1.0296 O   0  0  0  0  0  0
    1.7972   -2.2779    3.5179 O   0  0  0  0  0  0
    0.8659   -6.0447    8.9866 O   0  0  0  0  0  0
    1.8166   -6.8709    9.4954 C   0  0  0  0  0  0
    2.9570   -6.9911    9.0901 O   0  0  0  0  0  0
    1.2562   -7.5460   10.7168 C   0  0  0  0  0  0
    2.3530   -8.0455   11.6707 C   0  0  0  0  0  0
    1.7869   -8.5616   12.9998 C   0  0  0  0  0  0
    2.8945   -8.9867   13.9357 C   0  0  0  0  0  0
    3.0049  -10.1226   14.3843 O   0  0  0  0  0  0
    3.7530   -7.9993   14.2310 O   0  0  0  0  0  0
    3.0715   -9.1814   10.9294 C   0  0  0  0  0  0
    4.2255   -9.0970   10.5375 O   0  0  0  0  0  0
    2.3111  -10.2612   10.7018 O   0  0  0  0  0  0
    3.4739   -3.5933    8.0775 O   0  0  0  0  0  0
    4.6112   -3.0720    8.6716 C   0  0  0  0  0  0
    4.6954   -1.9468    9.1463 O   0  0  0  0  0  0
    5.7776   -4.0689    8.6747 C   0  0  0  0  0  0
    6.8294   -3.8844    7.5371 C   0  0  0  0  0  0
    7.1288   -5.0892    6.6264 C   0  0  0  0  0  0
    7.6295   -6.2858    7.3826 C   0  0  0  0  0  0
    7.0002   -7.3145    7.5883 O   0  0  0  0  0  0
    8.8896   -6.1285    7.8160 O   0  0  0  0  0  0
    6.5761   -2.6784    6.6240 C   0  0  0  0  0  0
    5.4849   -2.4238    6.1538 O   0  0  0  0  0  0
    7.6261   -1.8470    6.4576 O   0  0  0  0  0  0
    8.4100   -2.5199   -5.1642 H   0  0  0  0  0  0
    8.0440   -2.1052   -3.6427 H   0  0  0  0  0  0
    3.6360   -1.5494   -4.2083 H   0  0  0  0  0  0
    7.1036   -1.0945   -1.8292 H   0  0  0  0  0  0
    0.8414   -2.4464    3.4671 H   0  0  0  0  0  0
    4.4648   -8.2389   14.8550 H   0  0  0  0  0  0
    2.7513  -10.9673   10.1667 H   0  0  0  0  0  0
    9.1315   -6.9555    8.2838 H   0  0  0  0  0  0
    7.4204   -0.9951    6.0125 H   0  0  0  0  0  0
  1  2  1  0  0  0
  2  3  1  0  0  0
  3  4  1  0  0  0
  4  5  1  0  0  0
  5  6  1  0  0  0
  5  7  1  0  0  0
  7  8  1  0  0  0
  7 39  1  0  0  0
  8  9  1  0  0  0
  8 27  1  0  0  0
  9 10  1  0  0  0
 10 11  1  0  0  0
 10 12  1  0  0  0
 12 13  1  0  0  0
 13 14  1  0  0  0
 13 26  1  0  0  0
 14 15  1  0  0  0
 15 16  1  0  0  0
 16 17  1  0  0  0
 17 18  1  0  0  0
 18 19  1  0  0  0
 18 25  1  0  0  0
 19 20  1  0  0  0
 20 21  1  0  0  0
 20 24  1  0  0  0
 21 22  1  0  0  0
 21 23  1  0  0  0
 23 51  1  0  0  0
 23 52  1  0  0  0
 24 53  1  0  0  0
 25 54  1  0  0  0
 26 55  1  0  0  0
 27 28  1  0  0  0
 28 29  2  0  0  0
 28 30  1  0  0  0
 30 31  1  0  0  0
 31 32  1  0  0  0
 31 36  1  0  0  0
 32 33  1  0  0  0
 33 34  2  0  0  0
 33 35  1  0  0  0
 35 56  1  0  0  0
 36 37  2  0  0  0
 36 38  1  0  0  0
 38 57  1  0  0  0
 39 40  1  0  0  0
 40 41  2  0  0  0
 40 42  1  0  0  0
 42 43  1  0  0  0
 43 44  1  0  0  0
 43 48  1  0  0  0
 44 45  1  0  0  0
 45 46  2  0  0  0
 45 47  1  0  0  0
 47 58  1  0  0  0
 48 49  2  0  0  0
 48 50  1  0  0  0
 50 59  1  0  0  0
M  END
>  <AUTHOR>
    GENERATED BY OPEN BABEL 2.4.1

>  <CHROM.1>
-73.76216471,-57.40401829,93.39137028,-67.26177133,155.82988856,58.80045739
-39.88318303,-55.20282652,109.13297045,163.22558393,155.10610117,-110.54995522
-56.90420502,-43.93615126,175.72487867,91.22575791,-55.95746061,-176.15809109
162.84353673,62.81022952,136.90172602,97.36029864,171.23184594,-16.68388983
-157.29753345,172.24023622,-177.47150778,112.05412818,-120.62314378,178.29052623
175.73711456,-81.72924840,98.28870654,-124.55875160,-58.86940317,-46.62317937
107.96712993,-179.33213264,-169.24282148,3.92656908,-4.54529914,6.22493207
1.91572960,-0.91400393,2.13269894

>  <COMPND>
    UNNAMED

>  <MASTER>
        0    0    0    0    0    0    0    0  109    0  109    0

>  <Name>
FB1.pdb

>  <RI>
0

>  <Rbt.Current_Directory>
/cluster/tossine/FB1_39T3/p3/0_clust01

>  <Rbt.Executable>
rbdock/0.1.0

>  <Rbt.Library>
librxdock.so/0.1.0

>  <Rbt.Parameter_File>
/cluster/rxdock/data/scripts/dock.prm

>  <Rbt.Receptor>
rx_2.prm

>  <SCORE>
13.1637

>  <SCORE.INTER>
-5.80609

>  <SCORE.INTER.CONST>
1

>  <SCORE.INTER.POLAR>
-2.35801

>  <SCORE.INTER.REPUL>
0.297505

>  <SCORE.INTER.ROT>
32

>  <SCORE.INTER.VDW>
-36.6764

>  <SCORE.INTER.norm>
-0.116122

>  <SCORE.INTRA>
18.9698

>  <SCORE.INTRA.DIHEDRAL>
33.8008

>  <SCORE.INTRA.DIHEDRAL.0>
47.3121

>  <SCORE.INTRA.POLAR>
1.47808

>  <SCORE.INTRA.POLAR.0>
-1.47808

>  <SCORE.INTRA.REPUL>
0.0299403

>  <SCORE.INTRA.REPUL.0>
0

>  <SCORE.INTRA.VDW>
-3.10582

>  <SCORE.INTRA.VDW.0>
-2.78316

>  <SCORE.INTRA.norm>
0.379395

>  <SCORE.RESTR>
0

>  <SCORE.RESTR.CAVITY>
0

>  <SCORE.RESTR.norm>
0

>  <SCORE.SYSTEM>
0

>  <SCORE.SYSTEM.CONST>
0

>  <SCORE.SYSTEM.DIHEDRAL>
0

>  <SCORE.SYSTEM.norm>
0

>  <SCORE.heavy>
50

>  <SCORE.norm>
0.263273

$$$$
