FB1.pdb
  RxDock  10062022303D
librxdock.so/0.1.0
 59 58  0  0  0  0  0  0  0  0999 V2000
    4.2722  -10.2473   13.9792 C   0  0  0  0  0  0
    5.0479   -8.9322   13.9633 C   0  0  0  0  0  0
    4.1086   -7.7182   13.8722 C   0  0  0  0  0  0
    3.4263   -7.5677   12.4896 C   0  0  0  0  0  0
    4.3526   -7.0131   11.3517 C   0  0  0  0  0  0
    5.3257   -8.1370   10.9268 C   0  0  0  0  0  0
    3.5529   -6.4521   10.1013 C   0  0  0  0  0  0
    2.6392   -7.4937    9.2974 C   0  0  0  0  0  0
    1.4376   -8.3280    9.9207 C   0  0  0  0  0  0
    1.8865   -9.5557   10.9270 C   0  0  0  0  0  0
    0.6263  -10.1727   11.5315 C   0  0  0  0  0  0
    2.7857  -10.7029   10.2789 C   0  0  0  0  0  0
    3.4747  -11.9007   11.1211 C   0  0  0  0  0  0
    2.6707  -13.1534   11.6113 C   0  0  0  0  0  0
    1.5638  -12.9475   12.7434 C   0  0  0  0  0  0
    0.6559  -14.1044   13.3195 C   0  0  0  0  0  0
   -0.7561  -14.3384   12.7204 C   0  0  0  0  0  0
   -1.8761  -13.3050   13.1293 C   0  0  0  0  0  0
   -2.3800  -13.3861   14.5756 C   0  0  0  0  0  0
   -3.5357  -12.4397   15.0079 C   0  0  0  0  0  0
   -3.2808  -10.9152   15.1985 C   0  0  0  0  0  0
   -4.2631   -9.9735   14.5160 C   0  0  0  0  0  0
   -3.1367  -10.5811   16.6282 N   0  0  0  0  0  0
   -4.5042  -12.5268   13.9318 O   0  0  0  0  0  0
   -1.3666  -11.9871   12.8983 O   0  0  0  0  0  0
    4.4931  -12.4249   10.2524 O   0  0  0  0  0  0
    2.0316   -6.7459    8.2092 O   0  0  0  0  0  0
    2.8521   -6.3416    7.2050 C   0  0  0  0  0  0
    4.0637   -6.4456    7.1800 O   0  0  0  0  0  0
    2.0035   -5.8311    6.0733 C   0  0  0  0  0  0
    2.7551   -4.8369    5.1738 C   0  0  0  0  0  0
    3.3535   -3.6653    5.9628 C   0  0  0  0  0  0
    3.8023   -2.5579    5.0379 C   0  0  0  0  0  0
    3.2518   -2.2984    3.9733 O   0  0  0  0  0  0
    4.8655   -1.8790    5.4937 O   0  0  0  0  0  0
    3.8743   -5.6416    4.4987 C   0  0  0  0  0  0
    3.9346   -6.8612    4.5361 O   0  0  0  0  0  0
    4.8124   -4.8924    3.9032 O   0  0  0  0  0  0
    2.8092   -5.2175   10.4514 O   0  0  0  0  0  0
    3.3263   -3.9988   10.0446 C   0  0  0  0  0  0
    4.4733   -3.8245    9.6540 O   0  0  0  0  0  0
    2.2940   -2.8672   10.1347 C   0  0  0  0  0  0
    2.8011   -1.4527    9.7144 C   0  0  0  0  0  0
    3.6958   -1.3466    8.4659 C   0  0  0  0  0  0
    5.1400   -1.1050    8.7980 C   0  0  0  0  0  0
    5.5576   -0.3145    9.6331 O   0  0  0  0  0  0
    5.9681   -1.8793    8.0804 O   0  0  0  0  0  0
    1.6984   -0.3962    9.5725 C   0  0  0  0  0  0
    1.5937    0.5538   10.3231 O   0  0  0  0  0  0
    0.9060   -0.5278    8.4881 O   0  0  0  0  0  0
   -4.0557  -10.3753   17.0174 H   0  0  0  0  0  0
   -2.6147   -9.7055   16.7080 H   0  0  0  0  0  0
   -4.8401  -13.4469   13.9761 H   0  0  0  0  0  0
   -2.1240  -11.3840   12.7836 H   0  0  0  0  0  0
    5.1742  -11.7407   10.1403 H   0  0  0  0  0  0
    5.2172   -2.1832    6.3523 H   0  0  0  0  0  0
    5.5791   -5.4042    3.5441 H   0  0  0  0  0  0
    6.8807   -1.6139    8.3211 H   0  0  0  0  0  0
    0.2779    0.2127    8.3349 H   0  0  0  0  0  0
  1  2  1  0  0  0
  2  3  1  0  0  0
  3  4  1  0  0  0
  4  5  1  0  0  0
  5  6  1  0  0  0
  5  7  1  0  0  0
  7  8  1  0  0  0
  7 39  1  0  0  0
  8  9  1  0  0  0
  8 27  1  0  0  0
  9 10  1  0  0  0
 10 11  1  0  0  0
 10 12  1  0  0  0
 12 13  1  0  0  0
 13 14  1  0  0  0
 13 26  1  0  0  0
 14 15  1  0  0  0
 15 16  1  0  0  0
 16 17  1  0  0  0
 17 18  1  0  0  0
 18 19  1  0  0  0
 18 25  1  0  0  0
 19 20  1  0  0  0
 20 21  1  0  0  0
 20 24  1  0  0  0
 21 22  1  0  0  0
 21 23  1  0  0  0
 23 51  1  0  0  0
 23 52  1  0  0  0
 24 53  1  0  0  0
 25 54  1  0  0  0
 26 55  1  0  0  0
 27 28  1  0  0  0
 28 29  2  0  0  0
 28 30  1  0  0  0
 30 31  1  0  0  0
 31 32  1  0  0  0
 31 36  1  0  0  0
 32 33  1  0  0  0
 33 34  2  0  0  0
 33 35  1  0  0  0
 35 56  1  0  0  0
 36 37  2  0  0  0
 36 38  1  0  0  0
 38 57  1  0  0  0
 39 40  1  0  0  0
 40 41  2  0  0  0
 40 42  1  0  0  0
 42 43  1  0  0  0
 43 44  1  0  0  0
 43 48  1  0  0  0
 44 45  1  0  0  0
 45 46  2  0  0  0
 45 47  1  0  0  0
 47 58  1  0  0  0
 48 49  2  0  0  0
 48 50  1  0  0  0
 50 59  1  0  0  0
M  END
>  <AUTHOR>
    GENERATED BY OPEN BABEL 2.4.1

>  <CHROM.1>
-70.93028881,-75.60455665,74.15975981,-62.02291691,59.11317395,102.86072322
-72.60980945,69.89388099,175.11517612,172.60493577,78.26759888,-68.20547883
66.77970498,178.80563456,-94.81911142,-75.29767398,-71.44115349,-176.85233332
156.67342536,-72.25922030,130.92631896,66.87603215,-88.70501119,-6.62715140
155.81923663,-54.48432916,-166.96766158,11.44378468,31.90746568,0.36541334
174.35255356,-15.40402553,179.12327262,41.92521027,-105.36586433,112.19127147
-43.93030119,176.48643126,-172.34529522,2.18299992,-7.11212303,10.12244651
-2.17134452,0.84579470,-0.11978680

>  <COMPND>
    UNNAMED

>  <MASTER>
        0    0    0    0    0    0    0    0  109    0  109    0

>  <Name>
FB1.pdb

>  <RI>
0

>  <Rbt.Current_Directory>
/cluster/tossine/FB1_39T3/p3/0_clust01

>  <Rbt.Executable>
rbdock/0.1.0

>  <Rbt.Library>
librxdock.so/0.1.0

>  <Rbt.Parameter_File>
/cluster/rxdock/data/scripts/dock.prm

>  <Rbt.Receptor>
rx_0.prm

>  <SCORE>
-0.628518

>  <SCORE.INTER>
-1.28235

>  <SCORE.INTER.CONST>
1

>  <SCORE.INTER.POLAR>
-2.75526

>  <SCORE.INTER.REPUL>
0.526764

>  <SCORE.INTER.ROT>
32

>  <SCORE.INTER.VDW>
-31.9483

>  <SCORE.INTER.norm>
-0.025647

>  <SCORE.INTRA>
-0.0378778

>  <SCORE.INTRA.DIHEDRAL>
-2.9515

>  <SCORE.INTRA.DIHEDRAL.0>
47.3121

>  <SCORE.INTRA.POLAR>
0.478077

>  <SCORE.INTRA.POLAR.0>
-1.47808

>  <SCORE.INTRA.REPUL>
0

>  <SCORE.INTRA.REPUL.0>
0

>  <SCORE.INTRA.VDW>
-0.187591

>  <SCORE.INTRA.VDW.0>
-2.78316

>  <SCORE.INTRA.norm>
-0.000757555

>  <SCORE.RESTR>
0.691711

>  <SCORE.RESTR.CAVITY>
0.691711

>  <SCORE.RESTR.norm>
0.0138342

>  <SCORE.SYSTEM>
0

>  <SCORE.SYSTEM.CONST>
0

>  <SCORE.SYSTEM.DIHEDRAL>
0

>  <SCORE.SYSTEM.norm>
0

>  <SCORE.heavy>
50

>  <SCORE.norm>
-0.0125704

$$$$
