FB1.pdb
  RxDock  10072000313D
librxdock.so/0.1.0
 59 58  0  0  0  0  0  0  0  0999 V2000
   10.7077   -3.3053    6.8861 C   0  0  0  0  0  0
    9.4629   -3.5298    6.0308 C   0  0  0  0  0  0
    8.2825   -4.0486    6.8685 C   0  0  0  0  0  0
    7.4639   -2.9217    7.5465 C   0  0  0  0  0  0
    6.4243   -3.4101    8.6147 C   0  0  0  0  0  0
    6.0004   -2.1945    9.4710 C   0  0  0  0  0  0
    5.1582   -4.1290    7.9838 C   0  0  0  0  0  0
    4.5906   -3.5271    6.6121 C   0  0  0  0  0  0
    3.6022   -4.2819    5.6213 C   0  0  0  0  0  0
    3.8588   -5.9053    5.4796 C   0  0  0  0  0  0
    2.6634   -6.6399    6.0842 C   0  0  0  0  0  0
    4.1298   -6.4481    4.0042 C   0  0  0  0  0  0
    3.4330   -5.8463    2.6734 C   0  0  0  0  0  0
    3.7662   -4.4170    2.1238 C   0  0  0  0  0  0
    3.5011   -4.1193    0.5777 C   0  0  0  0  0  0
    4.2130   -2.9715   -0.2410 C   0  0  0  0  0  0
    4.1377   -2.9782   -1.7908 C   0  0  0  0  0  0
    4.4125   -1.6045   -2.5165 C   0  0  0  0  0  0
    5.8183   -1.0153   -2.3457 C   0  0  0  0  0  0
    6.4097   -0.1698   -3.5092 C   0  0  0  0  0  0
    6.8982   -0.8575   -4.8183 C   0  0  0  0  0  0
    7.8697   -0.0624   -5.6794 C   0  0  0  0  0  0
    7.4246   -2.2069   -4.5382 N   0  0  0  0  0  0
    5.3227    0.6967   -3.9234 O   0  0  0  0  0  0
    4.1620   -1.7856   -3.9144 O   0  0  0  0  0  0
    3.8067   -6.7500    1.6197 O   0  0  0  0  0  0
    3.8837   -2.3073    6.9654 O   0  0  0  0  0  0
    4.5321   -1.1336    6.7482 C   0  0  0  0  0  0
    5.2623   -0.8780    5.8096 O   0  0  0  0  0  0
    4.1174   -0.1564    7.8134 C   0  0  0  0  0  0
    4.6100    1.2714    7.5288 C   0  0  0  0  0  0
    3.4988    2.1807    6.9884 C   0  0  0  0  0  0
    2.2461    2.0670    7.8257 C   0  0  0  0  0  0
    1.8954    2.9141    8.6401 O   0  0  0  0  0  0
    1.5473    0.9462    7.5924 O   0  0  0  0  0  0
    5.1277    1.8139    8.8681 C   0  0  0  0  0  0
    6.0894    1.3390    9.4530 O   0  0  0  0  0  0
    4.4060    2.8246    9.3716 O   0  0  0  0  0  0
    5.3602   -5.5962    7.9037 O   0  0  0  0  0  0
    5.7006   -6.2787    9.0597 C   0  0  0  0  0  0
    6.0335   -5.7461   10.1104 O   0  0  0  0  0  0
    5.6154   -7.8008    8.8856 C   0  0  0  0  0  0
    4.8291   -8.5665    9.9947 C   0  0  0  0  0  0
    3.2911   -8.5615    9.9254 C   0  0  0  0  0  0
    2.6683   -7.5068   10.7938 C   0  0  0  0  0  0
    1.6306   -7.6278   11.4303 O   0  0  0  0  0  0
    3.3909   -6.3767   10.8268 O   0  0  0  0  0  0
    5.2686  -10.0217   10.1986 C   0  0  0  0  0  0
    5.9860  -10.6108    9.4145 O   0  0  0  0  0  0
    4.8934  -10.5818   11.3678 O   0  0  0  0  0  0
    8.2645   -2.1258   -3.9669 H   0  0  0  0  0  0
    7.7426   -2.6223   -5.4167 H   0  0  0  0  0  0
    5.1262    1.2413   -3.1321 H   0  0  0  0  0  0
    4.1411   -2.7428   -4.0982 H   0  0  0  0  0  0
    4.7540   -6.6273    1.4402 H   0  0  0  0  0  0
    1.8281    0.4357    6.8088 H   0  0  0  0  0  0
    4.7141    3.1487   10.2541 H   0  0  0  0  0  0
    4.3095   -6.6366   11.0501 H   0  0  0  0  0  0
    4.3878   -9.9937   11.9717 H   0  0  0  0  0  0
  1  2  1  0  0  0
  2  3  1  0  0  0
  3  4  1  0  0  0
  4  5  1  0  0  0
  5  6  1  0  0  0
  5  7  1  0  0  0
  7  8  1  0  0  0
  7 39  1  0  0  0
  8  9  1  0  0  0
  8 27  1  0  0  0
  9 10  1  0  0  0
 10 11  1  0  0  0
 10 12  1  0  0  0
 12 13  1  0  0  0
 13 14  1  0  0  0
 13 26  1  0  0  0
 14 15  1  0  0  0
 15 16  1  0  0  0
 16 17  1  0  0  0
 17 18  1  0  0  0
 18 19  1  0  0  0
 18 25  1  0  0  0
 19 20  1  0  0  0
 20 21  1  0  0  0
 20 24  1  0  0  0
 21 22  1  0  0  0
 21 23  1  0  0  0
 23 51  1  0  0  0
 23 52  1  0  0  0
 24 53  1  0  0  0
 25 54  1  0  0  0
 26 55  1  0  0  0
 27 28  1  0  0  0
 28 29  2  0  0  0
 28 30  1  0  0  0
 30 31  1  0  0  0
 31 32  1  0  0  0
 31 36  1  0  0  0
 32 33  1  0  0  0
 33 34  2  0  0  0
 33 35  1  0  0  0
 35 56  1  0  0  0
 36 37  2  0  0  0
 36 38  1  0  0  0
 38 57  1  0  0  0
 39 40  1  0  0  0
 40 41  2  0  0  0
 40 42  1  0  0  0
 42 43  1  0  0  0
 43 44  1  0  0  0
 43 48  1  0  0  0
 44 45  1  0  0  0
 45 46  2  0  0  0
 45 47  1  0  0  0
 47 58  1  0  0  0
 48 49  2  0  0  0
 48 50  1  0  0  0
 50 59  1  0  0  0
M  END
>  <AUTHOR>
    GENERATED BY OPEN BABEL 2.4.1

>  <CHROM.1>
85.36115491,-169.17041826,163.82373006,-37.77786056,163.23454141,54.47780975
-36.50525500,101.15099182,112.83991548,-34.89875721,68.99040303,156.76291797
-70.92221654,-157.73671904,165.73575745,159.56636726,63.69181985,148.59674992
-16.13235178,-73.39937960,-159.77436635,61.84340735,-65.60832381,37.25568534
-170.44952760,102.73848158,47.97536337,64.44498657,103.62964159,-11.21114958
177.39196558,-10.83026309,-130.96093519,79.37597008,-96.49227341,-12.92579437
-142.82769631,-51.34099715,-0.78809419,4.90171646,-3.36458058,5.35265688
2.32879070,-1.46379624,2.69957351

>  <COMPND>
    UNNAMED

>  <MASTER>
        0    0    0    0    0    0    0    0  109    0  109    0

>  <Name>
FB1.pdb

>  <RI>
0

>  <Rbt.Current_Directory>
/cluster/tossine/FB1_39T3/p3/0_clust01

>  <Rbt.Executable>
rbdock/0.1.0

>  <Rbt.Library>
librxdock.so/0.1.0

>  <Rbt.Parameter_File>
/cluster/rxdock/data/scripts/dock.prm

>  <Rbt.Receptor>
rx_3.prm

>  <SCORE>
30.1009

>  <SCORE.INTER>
2.90461

>  <SCORE.INTER.CONST>
1

>  <SCORE.INTER.POLAR>
-3.05518

>  <SCORE.INTER.REPUL>
0.141195

>  <SCORE.INTER.ROT>
32

>  <SCORE.INTER.VDW>
-24.8137

>  <SCORE.INTER.norm>
0.0580923

>  <SCORE.INTRA>
27.1963

>  <SCORE.INTRA.DIHEDRAL>
38.6319

>  <SCORE.INTRA.DIHEDRAL.0>
47.3121

>  <SCORE.INTRA.POLAR>
1.47808

>  <SCORE.INTRA.POLAR.0>
-1.47808

>  <SCORE.INTRA.REPUL>
0

>  <SCORE.INTRA.REPUL.0>
0

>  <SCORE.INTRA.VDW>
2.8549

>  <SCORE.INTRA.VDW.0>
-2.78316

>  <SCORE.INTRA.norm>
0.543926

>  <SCORE.RESTR>
0

>  <SCORE.RESTR.CAVITY>
0

>  <SCORE.RESTR.norm>
0

>  <SCORE.SYSTEM>
0

>  <SCORE.SYSTEM.CONST>
0

>  <SCORE.SYSTEM.DIHEDRAL>
0

>  <SCORE.SYSTEM.norm>
0

>  <SCORE.heavy>
50

>  <SCORE.norm>
0.602018

$$$$
