FB1.pdb
  RxDock  10062023143D
librxdock.so/0.1.0
 59 58  0  0  0  0  0  0  0  0999 V2000
    2.1232   -4.3419    4.0428 C   0  0  0  0  0  0
    2.0571   -2.9832    3.3493 C   0  0  0  0  0  0
    3.2702   -2.1057    3.6992 C   0  0  0  0  0  0
    2.9983   -1.1074    4.8522 C   0  0  0  0  0  0
    4.2495   -0.2897    5.3281 C   0  0  0  0  0  0
    4.1449    1.1395    4.7476 C   0  0  0  0  0  0
    4.4178   -0.2506    6.9055 C   0  0  0  0  0  0
    3.0988   -0.4906    7.7822 C   0  0  0  0  0  0
    2.7101   -1.8577    8.4951 C   0  0  0  0  0  0
    1.9394   -2.9539    7.5328 C   0  0  0  0  0  0
    1.8605   -4.2842    8.2799 C   0  0  0  0  0  0
    0.4860   -2.5408    7.0210 C   0  0  0  0  0  0
   -0.8930   -3.1011    7.6559 C   0  0  0  0  0  0
   -1.2525   -2.9258    9.1712 C   0  0  0  0  0  0
   -0.6641   -3.9798   10.2161 C   0  0  0  0  0  0
   -0.9964   -3.9807   11.7601 C   0  0  0  0  0  0
   -1.0920   -5.3297   12.5208 C   0  0  0  0  0  0
    0.1162   -6.3282   12.3412 C   0  0  0  0  0  0
    0.2284   -7.0206   10.9772 C   0  0  0  0  0  0
    1.5629   -7.7346   10.6202 C   0  0  0  0  0  0
    1.9529   -9.0747   11.3111 C   0  0  0  0  0  0
    2.9064   -8.9750   12.4936 C   0  0  0  0  0  0
    0.7504   -9.8516   11.6674 N   0  0  0  0  0  0
    1.4406   -8.0598    9.2120 O   0  0  0  0  0  0
    1.3273   -5.6045   12.5848 O   0  0  0  0  0  0
   -1.9345   -2.4147    6.9412 O   0  0  0  0  0  0
    3.1485    0.4781    8.8646 O   0  0  0  0  0  0
    4.2348    0.4377    9.6792 C   0  0  0  0  0  0
    5.2327   -0.2379    9.5145 O   0  0  0  0  0  0
    4.0455    1.4494   10.7755 C   0  0  0  0  0  0
    4.6196    2.8281   10.4121 C   0  0  0  0  0  0
    5.9797    2.7327    9.7090 C   0  0  0  0  0  0
    6.9142    3.8230   10.1794 C   0  0  0  0  0  0
    8.1189    3.6609   10.3410 O   0  0  0  0  0  0
    6.2993    4.9937   10.4039 O   0  0  0  0  0  0
    3.5905    3.4809    9.4789 C   0  0  0  0  0  0
    3.3434    3.0590    8.3593 O   0  0  0  0  0  0
    3.0171    4.5861    9.9746 O   0  0  0  0  0  0
    5.5407   -1.1140    7.3456 O   0  0  0  0  0  0
    5.6008   -2.4121    6.8668 C   0  0  0  0  0  0
    5.0618   -2.8008    5.8388 O   0  0  0  0  0  0
    6.4291   -3.3313    7.7742 C   0  0  0  0  0  0
    5.9183   -4.8004    7.8977 C   0  0  0  0  0  0
    5.1211   -5.3904    6.7201 C   0  0  0  0  0  0
    4.5118   -6.7261    7.0349 C   0  0  0  0  0  0
    3.9974   -7.0429    8.0987 O   0  0  0  0  0  0
    4.5666   -7.5729    5.9955 O   0  0  0  0  0  0
    6.9997   -5.8224    8.2698 C   0  0  0  0  0  0
    7.9911   -6.0107    7.5927 O   0  0  0  0  0  0
    6.8353   -6.4315    9.4628 O   0  0  0  0  0  0
    0.3458   -9.4684   12.5207 H   0  0  0  0  0  0
    1.0367  -10.8014   11.9151 H   0  0  0  0  0  0
    2.3635   -8.1903    8.9079 H   0  0  0  0  0  0
    1.4318   -4.9401   11.8790 H   0  0  0  0  0  0
   -1.8569   -1.4655    7.1349 H   0  0  0  0  0  0
    6.8756    5.7109   10.7311 H   0  0  0  0  0  0
    3.3203    4.8330   10.8833 H   0  0  0  0  0  0
    4.6604   -7.0230    5.1893 H   0  0  0  0  0  0
    7.6210   -6.9186    9.7971 H   0  0  0  0  0  0
  1  2  1  0  0  0
  2  3  1  0  0  0
  3  4  1  0  0  0
  4  5  1  0  0  0
  5  6  1  0  0  0
  5  7  1  0  0  0
  7  8  1  0  0  0
  7 39  1  0  0  0
  8  9  1  0  0  0
  8 27  1  0  0  0
  9 10  1  0  0  0
 10 11  1  0  0  0
 10 12  1  0  0  0
 12 13  1  0  0  0
 13 14  1  0  0  0
 13 26  1  0  0  0
 14 15  1  0  0  0
 15 16  1  0  0  0
 16 17  1  0  0  0
 17 18  1  0  0  0
 18 19  1  0  0  0
 18 25  1  0  0  0
 19 20  1  0  0  0
 20 21  1  0  0  0
 20 24  1  0  0  0
 21 22  1  0  0  0
 21 23  1  0  0  0
 23 51  1  0  0  0
 23 52  1  0  0  0
 24 53  1  0  0  0
 25 54  1  0  0  0
 26 55  1  0  0  0
 27 28  1  0  0  0
 28 29  2  0  0  0
 28 30  1  0  0  0
 30 31  1  0  0  0
 31 32  1  0  0  0
 31 36  1  0  0  0
 32 33  1  0  0  0
 33 34  2  0  0  0
 33 35  1  0  0  0
 35 56  1  0  0  0
 36 37  2  0  0  0
 36 38  1  0  0  0
 38 57  1  0  0  0
 39 40  1  0  0  0
 40 41  2  0  0  0
 40 42  1  0  0  0
 42 43  1  0  0  0
 43 44  1  0  0  0
 43 48  1  0  0  0
 44 45  1  0  0  0
 45 46  2  0  0  0
 45 47  1  0  0  0
 47 58  1  0  0  0
 48 49  2  0  0  0
 48 50  1  0  0  0
 50 59  1  0  0  0
M  END
>  <AUTHOR>
    GENERATED BY OPEN BABEL 2.4.1

>  <CHROM.1>
-96.42595359,174.51168513,103.13747394,-23.51112004,100.89844740,-49.38445976
-83.87614295,-58.04045657,170.05634952,-101.81485516,57.75323436,-83.58446152
-63.67382449,-176.67080209,145.78306594,50.74810662,-72.12379496,165.41523710
-66.31586275,72.44555847,-97.67459865,159.39764226,-79.00919943,7.91529548
-90.56532344,-41.86572517,-140.66505049,-66.70197447,142.85211460,178.49511979
-0.83505710,22.46534611,144.21322481,27.36615546,-171.41813210,-59.18086019
39.60783755,-22.12522930,-166.14221949,3.28507072,-2.71017162,8.57428814
-2.00368929,0.74194096,0.18516465

>  <COMPND>
    UNNAMED

>  <MASTER>
        0    0    0    0    0    0    0    0  109    0  109    0

>  <Name>
FB1.pdb

>  <RI>
0

>  <Rbt.Current_Directory>
/cluster/tossine/FB1_39T3/p3/0_clust01

>  <Rbt.Executable>
rbdock/0.1.0

>  <Rbt.Library>
librxdock.so/0.1.0

>  <Rbt.Parameter_File>
/cluster/rxdock/data/scripts/dock.prm

>  <Rbt.Receptor>
rx_1.prm

>  <SCORE>
37.5517

>  <SCORE.INTER>
22.4888

>  <SCORE.INTER.CONST>
1

>  <SCORE.INTER.POLAR>
-1.70352

>  <SCORE.INTER.REPUL>
0.683441

>  <SCORE.INTER.ROT>
32

>  <SCORE.INTER.VDW>
-12.5364

>  <SCORE.INTER.norm>
0.449777

>  <SCORE.INTRA>
14.962

>  <SCORE.INTRA.DIHEDRAL>
25.8171

>  <SCORE.INTRA.DIHEDRAL.0>
47.3121

>  <SCORE.INTRA.POLAR>
0.736976

>  <SCORE.INTRA.POLAR.0>
-1.47808

>  <SCORE.INTRA.REPUL>
0

>  <SCORE.INTRA.REPUL.0>
0

>  <SCORE.INTRA.VDW>
-0.452284

>  <SCORE.INTRA.VDW.0>
-2.78316

>  <SCORE.INTRA.norm>
0.29924

>  <SCORE.RESTR>
0.100841

>  <SCORE.RESTR.CAVITY>
0.100841

>  <SCORE.RESTR.norm>
0.00201682

>  <SCORE.SYSTEM>
0

>  <SCORE.SYSTEM.CONST>
0

>  <SCORE.SYSTEM.DIHEDRAL>
0

>  <SCORE.SYSTEM.norm>
0

>  <SCORE.heavy>
50

>  <SCORE.norm>
0.751034

$$$$
