FB1.pdb
  RxDock  10062023593D
librxdock.so/0.1.0
 59 58  0  0  0  0  0  0  0  0999 V2000
    1.4508   -4.1971    1.5504 C   0  0  0  0  0  0
    2.3697   -3.3634    2.4403 C   0  0  0  0  0  0
    1.8180   -3.2387    3.8701 C   0  0  0  0  0  0
    1.8746   -4.5632    4.6715 C   0  0  0  0  0  0
    1.3624   -4.4637    6.1508 C   0  0  0  0  0  0
    1.2897   -5.8927    6.7366 C   0  0  0  0  0  0
    2.2504   -3.5197    7.0663 C   0  0  0  0  0  0
    1.5017   -2.7457    8.2522 C   0  0  0  0  0  0
    1.0126   -3.4087    9.6122 C   0  0  0  0  0  0
   -0.6237   -3.5314    9.7817 C   0  0  0  0  0  0
   -1.1732   -4.3436    8.6102 C   0  0  0  0  0  0
   -1.1435   -4.1545   11.1551 C   0  0  0  0  0  0
   -0.7303   -5.6210   11.7003 C   0  0  0  0  0  0
    0.6618   -5.9109   12.3591 C   0  0  0  0  0  0
    1.9797   -5.5919   11.5161 C   0  0  0  0  0  0
    2.3079   -6.2246   10.1066 C   0  0  0  0  0  0
    3.0163   -7.6031   10.0336 C   0  0  0  0  0  0
    2.0909   -8.8777   10.1243 C   0  0  0  0  0  0
    2.8042  -10.2354   10.1403 C   0  0  0  0  0  0
    3.9746  -10.4416   11.1433 C   0  0  0  0  0  0
    4.6870  -11.8220   11.2551 C   0  0  0  0  0  0
    5.5398  -12.0457   12.4961 C   0  0  0  0  0  0
    3.7261  -12.9259   11.0694 N   0  0  0  0  0  0
    5.0050   -9.5221   10.6999 O   0  0  0  0  0  0
    1.2998   -8.7655   11.3123 O   0  0  0  0  0  0
   -1.6979   -5.9223   12.7199 O   0  0  0  0  0  0
    2.3982   -1.6817    8.6727 O   0  0  0  0  0  0
    2.5018   -0.6028    7.8539 C   0  0  0  0  0  0
    1.7410   -0.3086    6.9517 O   0  0  0  0  0  0
    3.6648    0.2329    8.3127 C   0  0  0  0  0  0
    4.7303    0.4126    7.2195 C   0  0  0  0  0  0
    4.6764    1.8001    6.5674 C   0  0  0  0  0  0
    3.4523    1.9445    5.6933 C   0  0  0  0  0  0
    3.2459    1.2606    4.6967 O   0  0  0  0  0  0
    2.6053    2.8960    6.1130 O   0  0  0  0  0  0
    6.0845    0.2103    7.9131 C   0  0  0  0  0  0
    6.2883    0.5123    9.0791 O   0  0  0  0  0  0
    7.0450   -0.2812    7.1182 O   0  0  0  0  0  0
    3.4643   -4.2252    7.5444 O   0  0  0  0  0  0
    4.6010   -4.1906    6.7540 C   0  0  0  0  0  0
    4.9084   -3.2632    6.0165 O   0  0  0  0  0  0
    5.4529   -5.4583    6.9007 C   0  0  0  0  0  0
    6.8258   -5.2725    7.6185 C   0  0  0  0  0  0
    7.6042   -6.5358    8.0290 C   0  0  0  0  0  0
    6.7848   -7.4886    8.8507 C   0  0  0  0  0  0
    6.4162   -8.6004    8.4977 O   0  0  0  0  0  0
    6.4952   -6.9999   10.0663 O   0  0  0  0  0  0
    7.8096   -4.3526    6.8849 C   0  0  0  0  0  0
    7.8513   -4.2622    5.6738 O   0  0  0  0  0  0
    8.5631   -3.5610    7.6767 O   0  0  0  0  0  0
    3.2243  -13.0823   11.9425 H   0  0  0  0  0  0
    4.2485  -13.7898   10.9074 H   0  0  0  0  0  0
    5.2656   -9.8521    9.8142 H   0  0  0  0  0  0
    0.5863   -8.1231   11.1431 H   0  0  0  0  0  0
   -2.5782   -5.9232   12.3082 H   0  0  0  0  0  0
    1.8007    3.0062    5.5708 H   0  0  0  0  0  0
    6.7572   -0.4580    6.1884 H   0  0  0  0  0  0
    5.9934   -7.6979   10.5378 H   0  0  0  0  0  0
    9.1374   -2.9188    7.2034 H   0  0  0  0  0  0
  1  2  1  0  0  0
  2  3  1  0  0  0
  3  4  1  0  0  0
  4  5  1  0  0  0
  5  6  1  0  0  0
  5  7  1  0  0  0
  7  8  1  0  0  0
  7 39  1  0  0  0
  8  9  1  0  0  0
  8 27  1  0  0  0
  9 10  1  0  0  0
 10 11  1  0  0  0
 10 12  1  0  0  0
 12 13  1  0  0  0
 13 14  1  0  0  0
 13 26  1  0  0  0
 14 15  1  0  0  0
 15 16  1  0  0  0
 16 17  1  0  0  0
 17 18  1  0  0  0
 18 19  1  0  0  0
 18 25  1  0  0  0
 19 20  1  0  0  0
 20 21  1  0  0  0
 20 24  1  0  0  0
 21 22  1  0  0  0
 21 23  1  0  0  0
 23 51  1  0  0  0
 23 52  1  0  0  0
 24 53  1  0  0  0
 25 54  1  0  0  0
 26 55  1  0  0  0
 27 28  1  0  0  0
 28 29  2  0  0  0
 28 30  1  0  0  0
 30 31  1  0  0  0
 31 32  1  0  0  0
 31 36  1  0  0  0
 32 33  1  0  0  0
 33 34  2  0  0  0
 33 35  1  0  0  0
 35 56  1  0  0  0
 36 37  2  0  0  0
 36 38  1  0  0  0
 38 57  1  0  0  0
 39 40  1  0  0  0
 40 41  2  0  0  0
 40 42  1  0  0  0
 42 43  1  0  0  0
 43 44  1  0  0  0
 43 48  1  0  0  0
 44 45  1  0  0  0
 45 46  2  0  0  0
 45 47  1  0  0  0
 47 58  1  0  0  0
 48 49  2  0  0  0
 48 50  1  0  0  0
 50 59  1  0  0  0
M  END
>  <AUTHOR>
    GENERATED BY OPEN BABEL 2.4.1

>  <CHROM.1>
70.03417990,178.13143614,171.81281979,148.99701424,75.09931044,88.12342781
-110.53135759,74.74265892,57.76132195,-57.57478669,77.10357331,-57.21163866
60.48120282,-58.21474144,-85.77544187,84.84575174,-176.28532010,50.01166109
76.61013194,176.84647671,-163.82032496,-64.59333282,-80.58038425,15.58764237
121.13513067,103.45837016,-71.20811357,-31.83667309,-63.01407719,-179.50071904
-0.47925093,31.03217614,-110.91217248,168.83024738,-53.13811433,-32.29235522
112.70657440,-177.85463536,-175.03119270,3.45331730,-4.55055903,8.27797464
1.53606117,0.32018137,-0.46175284

>  <COMPND>
    UNNAMED

>  <MASTER>
        0    0    0    0    0    0    0    0  109    0  109    0

>  <Name>
FB1.pdb

>  <RI>
0

>  <Rbt.Current_Directory>
/cluster/tossine/FB1_39T3/p3/0_clust01

>  <Rbt.Executable>
rbdock/0.1.0

>  <Rbt.Library>
librxdock.so/0.1.0

>  <Rbt.Parameter_File>
/cluster/rxdock/data/scripts/dock.prm

>  <Rbt.Receptor>
rx_2.prm

>  <SCORE>
1.5051

>  <SCORE.INTER>
5.06007

>  <SCORE.INTER.CONST>
1

>  <SCORE.INTER.POLAR>
-1.26088

>  <SCORE.INTER.REPUL>
0.105057

>  <SCORE.INTER.ROT>
32

>  <SCORE.INTER.VDW>
-28.5782

>  <SCORE.INTER.norm>
0.101201

>  <SCORE.INTRA>
-4.00512

>  <SCORE.INTRA.DIHEDRAL>
4.37539

>  <SCORE.INTRA.DIHEDRAL.0>
47.3121

>  <SCORE.INTRA.POLAR>
0.0791856

>  <SCORE.INTRA.POLAR.0>
-1.47808

>  <SCORE.INTRA.REPUL>
0

>  <SCORE.INTRA.REPUL.0>
0

>  <SCORE.INTRA.VDW>
-6.46205

>  <SCORE.INTRA.VDW.0>
-2.78316

>  <SCORE.INTRA.norm>
-0.0801024

>  <SCORE.RESTR>
0.450152

>  <SCORE.RESTR.CAVITY>
0.450152

>  <SCORE.RESTR.norm>
0.00900303

>  <SCORE.SYSTEM>
0

>  <SCORE.SYSTEM.CONST>
0

>  <SCORE.SYSTEM.DIHEDRAL>
0

>  <SCORE.SYSTEM.norm>
0

>  <SCORE.heavy>
50

>  <SCORE.norm>
0.030102

$$$$
