FB1.pdb
  RxDock  10072001113D
librxdock.so/0.1.0
 59 58  0  0  0  0  0  0  0  0999 V2000
    6.1842   -3.2497   -1.4195 C   0  0  0  0  0  0
    5.7474   -3.7177   -0.0333 C   0  0  0  0  0  0
    4.3184   -4.2850   -0.0481 C   0  0  0  0  0  0
    3.6913   -4.4158    1.3624 C   0  0  0  0  0  0
    2.5879   -3.3524    1.6970 C   0  0  0  0  0  0
    1.2108   -4.0547    1.6635 C   0  0  0  0  0  0
    2.8166   -2.6178    3.0848 C   0  0  0  0  0  0
    2.4435   -3.4372    4.4098 C   0  0  0  0  0  0
    2.6132   -5.0075    4.5927 C   0  0  0  0  0  0
    4.1530   -5.5138    4.8992 C   0  0  0  0  0  0
    5.1039   -4.7678    3.9645 C   0  0  0  0  0  0
    4.6560   -5.3631    6.4055 C   0  0  0  0  0  0
    4.1300   -6.2761    7.6336 C   0  0  0  0  0  0
    4.0254   -5.7326    9.0999 C   0  0  0  0  0  0
    3.7524   -6.7764   10.2768 C   0  0  0  0  0  0
    2.5697   -7.8233   10.2796 C   0  0  0  0  0  0
    2.3078   -8.6776   11.5480 C   0  0  0  0  0  0
    1.7838   -7.9075   12.8215 C   0  0  0  0  0  0
    0.2765   -7.6285   12.8743 C   0  0  0  0  0  0
   -0.4247   -7.1190   11.5832 C   0  0  0  0  0  0
   -0.5755   -8.0505   10.3443 C   0  0  0  0  0  0
   -1.3078   -9.3658   10.5707 C   0  0  0  0  0  0
   -1.1514   -7.3163    9.2017 N   0  0  0  0  0  0
   -1.7828   -6.8204   11.9959 O   0  0  0  0  0  0
    2.1461   -8.6691   13.9784 O   0  0  0  0  0  0
    2.7877   -6.6431    7.2729 O   0  0  0  0  0  0
    3.2400   -2.8621    5.4809 O   0  0  0  0  0  0
    2.9731   -1.5756    5.8258 C   0  0  0  0  0  0
    2.5088   -0.7176    5.0993 O   0  0  0  0  0  0
    3.2526   -1.4084    7.2939 C   0  0  0  0  0  0
    4.1564   -0.2007    7.5889 C   0  0  0  0  0  0
    5.2563   -0.0172    6.5354 C   0  0  0  0  0  0
    6.3234   -1.0785    6.6709 C   0  0  0  0  0  0
    6.2852   -1.9761    7.5055 O   0  0  0  0  0  0
    7.3226   -0.9475    5.7858 O   0  0  0  0  0  0
    3.2320    1.0246    7.6022 C   0  0  0  0  0  0
    2.9032    1.6010    8.6279 O   0  0  0  0  0  0
    2.7723    1.3836    6.3956 O   0  0  0  0  0  0
    4.1758   -2.0291    3.1614 O   0  0  0  0  0  0
    4.6470   -1.3149    2.0723 C   0  0  0  0  0  0
    4.3814   -1.5696    0.9048 O   0  0  0  0  0  0
    5.5533   -0.1484    2.4870 C   0  0  0  0  0  0
    6.1610    0.6863    1.3171 C   0  0  0  0  0  0
    7.0470   -0.0441    0.2915 C   0  0  0  0  0  0
    7.3262    0.7782   -0.9334 C   0  0  0  0  0  0
    6.9212    0.5370   -2.0623 O   0  0  0  0  0  0
    8.0763    1.8582   -0.6665 O   0  0  0  0  0  0
    5.1398    1.5131    0.5261 C   0  0  0  0  0  0
    4.9552    2.6980    0.7226 O   0  0  0  0  0  0
    4.5267    0.8630   -0.4853 O   0  0  0  0  0  0
   -0.5727   -6.5015    9.0023 H   0  0  0  0  0  0
   -2.0572   -6.9337    9.4823 H   0  0  0  0  0  0
   -2.1198   -7.6641   12.3644 H   0  0  0  0  0  0
    1.8688   -8.1713   14.7694 H   0  0  0  0  0  0
    2.4964   -7.3478    7.8754 H   0  0  0  0  0  0
    7.2328   -0.2003    5.1637 H   0  0  0  0  0  0
    3.0472    0.7852    5.6574 H   0  0  0  0  0  0
    8.1539    2.3609   -1.5046 H   0  0  0  0  0  0
    3.8587    1.3890   -0.9785 H   0  0  0  0  0  0
  1  2  1  0  0  0
  2  3  1  0  0  0
  3  4  1  0  0  0
  4  5  1  0  0  0
  5  6  1  0  0  0
  5  7  1  0  0  0
  7  8  1  0  0  0
  7 39  1  0  0  0
  8  9  1  0  0  0
  8 27  1  0  0  0
  9 10  1  0  0  0
 10 11  1  0  0  0
 10 12  1  0  0  0
 12 13  1  0  0  0
 13 14  1  0  0  0
 13 26  1  0  0  0
 14 15  1  0  0  0
 15 16  1  0  0  0
 16 17  1  0  0  0
 17 18  1  0  0  0
 18 19  1  0  0  0
 18 25  1  0  0  0
 19 20  1  0  0  0
 20 21  1  0  0  0
 20 24  1  0  0  0
 21 22  1  0  0  0
 21 23  1  0  0  0
 23 51  1  0  0  0
 23 52  1  0  0  0
 24 53  1  0  0  0
 25 54  1  0  0  0
 26 55  1  0  0  0
 27 28  1  0  0  0
 28 29  2  0  0  0
 28 30  1  0  0  0
 30 31  1  0  0  0
 31 32  1  0  0  0
 31 36  1  0  0  0
 32 33  1  0  0  0
 33 34  2  0  0  0
 33 35  1  0  0  0
 35 56  1  0  0  0
 36 37  2  0  0  0
 36 38  1  0  0  0
 38 57  1  0  0  0
 39 40  1  0  0  0
 40 41  2  0  0  0
 40 42  1  0  0  0
 42 43  1  0  0  0
 43 44  1  0  0  0
 43 48  1  0  0  0
 44 45  1  0  0  0
 45 46  2  0  0  0
 45 47  1  0  0  0
 47 58  1  0  0  0
 48 49  2  0  0  0
 48 50  1  0  0  0
 50 59  1  0  0  0
M  END
>  <AUTHOR>
    GENERATED BY OPEN BABEL 2.4.1

>  <CHROM.1>
-164.43534782,106.30872522,106.65182382,-76.75546329,34.34651133,45.80854068
78.25715388,65.43138450,-43.70851006,71.44574636,-148.27737782,-169.04177184
167.60426949,-52.29502601,-173.12605854,67.82506512,82.53486121,-43.72241123
176.81745524,68.16905093,57.37665733,-57.51791730,55.94720204,-27.22414490
129.38892102,-38.07099023,-72.57839230,106.11762799,1.21764897,-0.79100643
3.14506009,-33.75900654,178.35794072,-59.40225509,167.54646143,98.68607669
-112.81177617,-176.21079635,178.74223390,3.65270084,-3.13672905,5.36013466
0.39243838,-1.18947112,-2.11289824

>  <COMPND>
    UNNAMED

>  <MASTER>
        0    0    0    0    0    0    0    0  109    0  109    0

>  <Name>
FB1.pdb

>  <RI>
0

>  <Rbt.Current_Directory>
/cluster/tossine/FB1_39T3/p3/0_clust01

>  <Rbt.Executable>
rbdock/0.1.0

>  <Rbt.Library>
librxdock.so/0.1.0

>  <Rbt.Parameter_File>
/cluster/rxdock/data/scripts/dock.prm

>  <Rbt.Receptor>
rx_4.prm

>  <SCORE>
19.774

>  <SCORE.INTER>
8.3976

>  <SCORE.INTER.CONST>
1

>  <SCORE.INTER.POLAR>
-1.31297

>  <SCORE.INTER.REPUL>
0.238315

>  <SCORE.INTER.ROT>
32

>  <SCORE.INTER.VDW>
-25.7299

>  <SCORE.INTER.norm>
0.167952

>  <SCORE.INTRA>
11.2198

>  <SCORE.INTRA.DIHEDRAL>
6.33129

>  <SCORE.INTRA.DIHEDRAL.0>
47.3121

>  <SCORE.INTRA.POLAR>
1.28296

>  <SCORE.INTRA.POLAR.0>
-1.47808

>  <SCORE.INTRA.REPUL>
0

>  <SCORE.INTRA.REPUL.0>
0

>  <SCORE.INTRA.VDW>
3.6921

>  <SCORE.INTRA.VDW.0>
-2.78316

>  <SCORE.INTRA.norm>
0.224396

>  <SCORE.RESTR>
0.15656

>  <SCORE.RESTR.CAVITY>
0.15656

>  <SCORE.RESTR.norm>
0.00313119

>  <SCORE.SYSTEM>
0

>  <SCORE.SYSTEM.CONST>
0

>  <SCORE.SYSTEM.DIHEDRAL>
0

>  <SCORE.SYSTEM.norm>
0

>  <SCORE.heavy>
50

>  <SCORE.norm>
0.395479

$$$$
