FB1.pdb
  RxDock  10062023533D
librxdock.so/0.1.0
 59 58  0  0  0  0  0  0  0  0999 V2000
   -0.4180   -4.1391    8.6837 C   0  0  0  0  0  0
   -0.6868   -3.1562    7.5466 C   0  0  0  0  0  0
    0.3705   -2.0410    7.4961 C   0  0  0  0  0  0
    0.8098   -1.6713    6.0573 C   0  0  0  0  0  0
    1.4997   -2.8311    5.2577 C   0  0  0  0  0  0
    0.6898   -3.0775    3.9639 C   0  0  0  0  0  0
    3.0263   -2.5514    4.9269 C   0  0  0  0  0  0
    3.7426   -3.5542    3.9035 C   0  0  0  0  0  0
    4.1795   -3.1888    2.4190 C   0  0  0  0  0  0
    4.8966   -4.4143    1.5792 C   0  0  0  0  0  0
    4.0233   -5.6619    1.7012 C   0  0  0  0  0  0
    5.2054   -4.1259    0.0409 C   0  0  0  0  0  0
    5.9560   -2.7985   -0.5008 C   0  0  0  0  0  0
    5.9803   -2.4072   -2.0181 C   0  0  0  0  0  0
    6.2869   -0.8885   -2.4038 C   0  0  0  0  0  0
    5.2324    0.2833   -2.3064 C   0  0  0  0  0  0
    5.6574    1.7274   -2.6825 C   0  0  0  0  0  0
    6.5265    1.8895   -3.9892 C   0  0  0  0  0  0
    6.6083    3.3026   -4.5798 C   0  0  0  0  0  0
    7.3889    4.3890   -3.7870 C   0  0  0  0  0  0
    7.8139    5.7194   -4.4762 C   0  0  0  0  0  0
    7.0107    6.1347   -5.7009 C   0  0  0  0  0  0
    7.8869    6.8192   -3.4957 N   0  0  0  0  0  0
    6.4862    4.7884   -2.7243 O   0  0  0  0  0  0
    7.8542    1.4420   -3.6950 O   0  0  0  0  0  0
    5.2949   -1.7052    0.1581 O   0  0  0  0  0  0
    4.9744   -3.9799    4.5467 O   0  0  0  0  0  0
    4.8558   -4.6774    5.7063 C   0  0  0  0  0  0
    3.8796   -5.3038    6.0724 O   0  0  0  0  0  0
    6.1756   -4.6330    6.4257 C   0  0  0  0  0  0
    6.4855   -5.9406    7.1718 C   0  0  0  0  0  0
    7.9337   -6.0027    7.6740 C   0  0  0  0  0  0
    8.8588   -5.2243    6.7677 C   0  0  0  0  0  0
    9.4593   -4.2139    7.1175 O   0  0  0  0  0  0
    8.9644   -5.7459    5.5366 O   0  0  0  0  0  0
    5.5150   -5.9883    8.3601 C   0  0  0  0  0  0
    4.8479   -6.9736    8.6371 O   0  0  0  0  0  0
    5.4209   -4.8396    9.0438 O   0  0  0  0  0  0
    3.2422   -1.1320    4.5548 O   0  0  0  0  0  0
    3.7112   -0.2606    5.5238 C   0  0  0  0  0  0
    4.1546    0.8579    5.2986 O   0  0  0  0  0  0
    3.6156   -0.8520    6.9364 C   0  0  0  0  0  0
    4.9671   -0.9991    7.7020 C   0  0  0  0  0  0
    5.8997    0.2243    7.7649 C   0  0  0  0  0  0
    5.4368    1.2650    8.7432 C   0  0  0  0  0  0
    4.3010    1.3747    9.1843 O   0  0  0  0  0  0
    6.4257    2.0888    9.1223 O   0  0  0  0  0  0
    4.8350   -1.5418    9.1304 C   0  0  0  0  0  0
    3.7829   -1.5517    9.7383 O   0  0  0  0  0  0
    5.9476   -2.1118    9.6388 O   0  0  0  0  0  0
    6.9714    7.2606   -3.4200 H   0  0  0  0  0  0
    8.5006    7.5478   -3.8671 H   0  0  0  0  0  0
    6.4971    4.0361   -2.0956 H   0  0  0  0  0  0
    8.2087    1.9946   -2.9743 H   0  0  0  0  0  0
    4.3979   -1.6313   -0.2085 H   0  0  0  0  0  0
    8.1182   -5.9821    5.1103 H   0  0  0  0  0  0
    4.8845   -4.8988    9.8730 H   0  0  0  0  0  0
    6.0288    2.7398    9.7388 H   0  0  0  0  0  0
    6.0325   -2.0672   10.6171 H   0  0  0  0  0  0
  1  2  1  0  0  0
  2  3  1  0  0  0
  3  4  1  0  0  0
  4  5  1  0  0  0
  5  6  1  0  0  0
  5  7  1  0  0  0
  7  8  1  0  0  0
  7 39  1  0  0  0
  8  9  1  0  0  0
  8 27  1  0  0  0
  9 10  1  0  0  0
 10 11  1  0  0  0
 10 12  1  0  0  0
 12 13  1  0  0  0
 13 14  1  0  0  0
 13 26  1  0  0  0
 14 15  1  0  0  0
 15 16  1  0  0  0
 16 17  1  0  0  0
 17 18  1  0  0  0
 18 19  1  0  0  0
 18 25  1  0  0  0
 19 20  1  0  0  0
 20 21  1  0  0  0
 20 24  1  0  0  0
 21 22  1  0  0  0
 21 23  1  0  0  0
 23 51  1  0  0  0
 23 52  1  0  0  0
 24 53  1  0  0  0
 25 54  1  0  0  0
 26 55  1  0  0  0
 27 28  1  0  0  0
 28 29  2  0  0  0
 28 30  1  0  0  0
 30 31  1  0  0  0
 31 32  1  0  0  0
 31 36  1  0  0  0
 32 33  1  0  0  0
 33 34  2  0  0  0
 33 35  1  0  0  0
 35 56  1  0  0  0
 36 37  2  0  0  0
 36 38  1  0  0  0
 38 57  1  0  0  0
 39 40  1  0  0  0
 40 41  2  0  0  0
 40 42  1  0  0  0
 42 43  1  0  0  0
 43 44  1  0  0  0
 43 48  1  0  0  0
 44 45  1  0  0  0
 45 46  2  0  0  0
 45 47  1  0  0  0
 47 58  1  0  0  0
 48 49  2  0  0  0
 48 50  1  0  0  0
 50 59  1  0  0  0
M  END
>  <AUTHOR>
    GENERATED BY OPEN BABEL 2.4.1

>  <CHROM.1>
139.49278507,-62.40175273,122.15255178,-169.76494293,109.11943702,98.34621374
-179.86759673,62.87685454,49.82961234,49.30991491,-167.04021786,159.44970316
-69.69061670,-77.97289233,178.74253604,43.66947183,163.12536131,68.91221667
-60.13655556,164.59805810,22.87689442,73.41195759,-88.38870361,22.26656180
-144.38720833,168.86589200,-30.19378846,131.71500667,114.53999026,47.23166051
-172.80459331,166.25948414,119.65127193,50.07699782,76.02978241,-17.12193302
-19.63866881,178.76189517,151.84599730,5.08199676,-1.52280514,3.76912813
2.35456495,-1.32218223,2.86625796

>  <COMPND>
    UNNAMED

>  <MASTER>
        0    0    0    0    0    0    0    0  109    0  109    0

>  <Name>
FB1.pdb

>  <RI>
0

>  <Rbt.Current_Directory>
/cluster/tossine/FB1_39T3/p3/0_clust01

>  <Rbt.Executable>
rbdock/0.1.0

>  <Rbt.Library>
librxdock.so/0.1.0

>  <Rbt.Parameter_File>
/cluster/rxdock/data/scripts/dock.prm

>  <Rbt.Receptor>
rx_2.prm

>  <SCORE>
17.2011

>  <SCORE.INTER>
-4.1472

>  <SCORE.INTER.CONST>
1

>  <SCORE.INTER.POLAR>
-2.70319

>  <SCORE.INTER.REPUL>
0.544348

>  <SCORE.INTER.ROT>
32

>  <SCORE.INTER.VDW>
-35.0781

>  <SCORE.INTER.norm>
-0.082944

>  <SCORE.INTRA>
21.1521

>  <SCORE.INTRA.DIHEDRAL>
26.1226

>  <SCORE.INTRA.DIHEDRAL.0>
47.3121

>  <SCORE.INTRA.POLAR>
1.47808

>  <SCORE.INTRA.POLAR.0>
-1.47808

>  <SCORE.INTRA.REPUL>
0

>  <SCORE.INTRA.REPUL.0>
0

>  <SCORE.INTRA.VDW>
3.06531

>  <SCORE.INTRA.VDW.0>
-2.78316

>  <SCORE.INTRA.norm>
0.423042

>  <SCORE.RESTR>
0.196219

>  <SCORE.RESTR.CAVITY>
0.196219

>  <SCORE.RESTR.norm>
0.00392438

>  <SCORE.SYSTEM>
0

>  <SCORE.SYSTEM.CONST>
0

>  <SCORE.SYSTEM.DIHEDRAL>
0

>  <SCORE.SYSTEM.norm>
0

>  <SCORE.heavy>
50

>  <SCORE.norm>
0.344022

$$$$
