FB1.pdb
  RxDock  10062023143D
librxdock.so/0.1.0
 59 58  0  0  0  0  0  0  0  0999 V2000
   -2.1004   -3.2983   12.4984 C   0  0  0  0  0  0
   -0.8593   -2.9950   11.6624 C   0  0  0  0  0  0
   -0.9319   -3.6549   10.2755 C   0  0  0  0  0  0
    0.4219   -3.6602    9.5226 C   0  0  0  0  0  0
    0.4172   -4.4346    8.1584 C   0  0  0  0  0  0
   -0.1315   -3.4888    7.0652 C   0  0  0  0  0  0
    1.8395   -5.0082    7.7509 C   0  0  0  0  0  0
    2.9143   -3.9573    7.1972 C   0  0  0  0  0  0
    2.9706   -3.4051    5.7072 C   0  0  0  0  0  0
    2.9027   -4.5593    4.5305 C   0  0  0  0  0  0
    1.5522   -4.4529    3.8241 C   0  0  0  0  0  0
    4.0754   -4.5311    3.4495 C   0  0  0  0  0  0
    4.4456   -3.2411    2.5453 C   0  0  0  0  0  0
    3.8082   -2.9927    1.1353 C   0  0  0  0  0  0
    4.0748   -4.0661   -0.0161 C   0  0  0  0  0  0
    3.9490   -3.7622   -1.5609 C   0  0  0  0  0  0
    5.0935   -3.0070   -2.2872 C   0  0  0  0  0  0
    5.3229   -1.5031   -1.8692 C   0  0  0  0  0  0
    6.0700   -1.2710   -0.5500 C   0  0  0  0  0  0
    6.4134    0.1904   -0.1443 C   0  0  0  0  0  0
    6.6465    1.2798   -1.2326 C   0  0  0  0  0  0
    5.4064    1.9913   -1.7555 C   0  0  0  0  0  0
    7.6662    2.2514   -0.7937 N   0  0  0  0  0  0
    5.2561    0.6465    0.6017 O   0  0  0  0  0  0
    6.0477   -0.8578   -2.9219 O   0  0  0  0  0  0
    4.0534   -2.1086    3.3391 O   0  0  0  0  0  0
    2.7773   -2.7654    8.0177 O   0  0  0  0  0  0
    3.8128   -2.4623    8.8430 C   0  0  0  0  0  0
    4.7501   -3.1873    9.1174 O   0  0  0  0  0  0
    3.6643   -1.0335    9.2879 C   0  0  0  0  0  0
    2.2227   -0.5187    9.1489 C   0  0  0  0  0  0
    1.9437    0.6983   10.0403 C   0  0  0  0  0  0
    0.5151    1.1673    9.8909 C   0  0  0  0  0  0
    0.2057    2.3186    9.6035 O   0  0  0  0  0  0
   -0.3898    0.2000   10.1016 O   0  0  0  0  0  0
    2.0512   -0.1383    7.6718 C   0  0  0  0  0  0
    1.3006   -0.7325    6.9129 O   0  0  0  0  0  0
    2.8322    0.8727    7.2668 O   0  0  0  0  0  0
    2.4012   -5.8608    8.8268 O   0  0  0  0  0  0
    3.5261   -6.6188    8.5473 C   0  0  0  0  0  0
    3.9336   -6.8710    7.4209 O   0  0  0  0  0  0
    4.2234   -7.1195    9.8190 C   0  0  0  0  0  0
    3.4016   -8.1156   10.6947 C   0  0  0  0  0  0
    1.9201   -7.7922   10.9612 C   0  0  0  0  0  0
    1.7297   -6.7443   12.0195 C   0  0  0  0  0  0
    2.4498   -6.5751   12.9939 O   0  0  0  0  0  0
    0.6645   -5.9635   11.7829 O   0  0  0  0  0  0
    3.4703   -9.5767   10.2333 C   0  0  0  0  0  0
    2.4965  -10.1947    9.8507 O   0  0  0  0  0  0
    4.7093  -10.1086   10.1763 O   0  0  0  0  0  0
    8.4994    1.7479   -0.4922 H   0  0  0  0  0  0
    7.3261    2.7248    0.0464 H   0  0  0  0  0  0
    4.4875    0.3499    0.0702 H   0  0  0  0  0  0
    6.9577   -1.2075   -2.9234 H   0  0  0  0  0  0
    4.6300   -2.0750    4.1207 H   0  0  0  0  0  0
   -0.0205   -0.6943   10.2338 H   0  0  0  0  0  0
    3.4557    1.2108    7.9565 H   0  0  0  0  0  0
    0.6467   -5.2887   12.4939 H   0  0  0  0  0  0
    4.7504  -11.0462    9.8839 H   0  0  0  0  0  0
  1  2  1  0  0  0
  2  3  1  0  0  0
  3  4  1  0  0  0
  4  5  1  0  0  0
  5  6  1  0  0  0
  5  7  1  0  0  0
  7  8  1  0  0  0
  7 39  1  0  0  0
  8  9  1  0  0  0
  8 27  1  0  0  0
  9 10  1  0  0  0
 10 11  1  0  0  0
 10 12  1  0  0  0
 12 13  1  0  0  0
 13 14  1  0  0  0
 13 26  1  0  0  0
 14 15  1  0  0  0
 15 16  1  0  0  0
 16 17  1  0  0  0
 17 18  1  0  0  0
 18 19  1  0  0  0
 18 25  1  0  0  0
 19 20  1  0  0  0
 20 21  1  0  0  0
 20 24  1  0  0  0
 21 22  1  0  0  0
 21 23  1  0  0  0
 23 51  1  0  0  0
 23 52  1  0  0  0
 24 53  1  0  0  0
 25 54  1  0  0  0
 26 55  1  0  0  0
 27 28  1  0  0  0
 28 29  2  0  0  0
 28 30  1  0  0  0
 30 31  1  0  0  0
 31 32  1  0  0  0
 31 36  1  0  0  0
 32 33  1  0  0  0
 33 34  2  0  0  0
 33 35  1  0  0  0
 35 56  1  0  0  0
 36 37  2  0  0  0
 36 38  1  0  0  0
 38 57  1  0  0  0
 39 40  1  0  0  0
 40 41  2  0  0  0
 40 42  1  0  0  0
 42 43  1  0  0  0
 43 44  1  0  0  0
 43 48  1  0  0  0
 44 45  1  0  0  0
 45 46  2  0  0  0
 45 47  1  0  0  0
 47 58  1  0  0  0
 48 49  2  0  0  0
 48 50  1  0  0  0
 50 59  1  0  0  0
M  END
>  <AUTHOR>
    GENERATED BY OPEN BABEL 2.4.1

>  <CHROM.1>
-166.44929314,174.92705504,83.25803073,-75.40166858,-81.01503177,169.28034410
-49.19240696,112.03374878,109.84528403,-55.97855584,-91.05369577,-61.97833147
66.55106550,-158.25430235,78.47111812,-66.72023920,77.91868279,175.59950795
-70.41905832,-28.99324760,85.80520636,-44.94743910,51.73669503,-12.02063646
21.17193379,159.04258099,-179.33648769,113.36659756,-125.83946015,-5.88237220
3.29883534,-16.48014233,64.64095774,-44.58209675,-78.16453829,-116.79359067
-32.96134097,-177.24008189,179.75943377,2.96362431,-3.19192997,6.30012377
2.33535316,-1.12373782,2.67634212

>  <COMPND>
    UNNAMED

>  <MASTER>
        0    0    0    0    0    0    0    0  109    0  109    0

>  <Name>
FB1.pdb

>  <RI>
0

>  <Rbt.Current_Directory>
/cluster/tossine/FB1_39T3/p3/0_clust01

>  <Rbt.Executable>
rbdock/0.1.0

>  <Rbt.Library>
librxdock.so/0.1.0

>  <Rbt.Parameter_File>
/cluster/rxdock/data/scripts/dock.prm

>  <Rbt.Receptor>
rx_1.prm

>  <SCORE>
9.15246

>  <SCORE.INTER>
4.58428

>  <SCORE.INTER.CONST>
1

>  <SCORE.INTER.POLAR>
-2.46095

>  <SCORE.INTER.REPUL>
0

>  <SCORE.INTER.ROT>
32

>  <SCORE.INTER.VDW>
-24.4485

>  <SCORE.INTER.norm>
0.0916857

>  <SCORE.INTRA>
4.56722

>  <SCORE.INTRA.DIHEDRAL>
2.71346

>  <SCORE.INTRA.DIHEDRAL.0>
47.3121

>  <SCORE.INTRA.POLAR>
1.47808

>  <SCORE.INTRA.POLAR.0>
-1.47808

>  <SCORE.INTRA.REPUL>
0

>  <SCORE.INTRA.REPUL.0>
0

>  <SCORE.INTRA.VDW>
-1.81498

>  <SCORE.INTRA.VDW.0>
-2.78316

>  <SCORE.INTRA.norm>
0.0913443

>  <SCORE.RESTR>
0.000954221

>  <SCORE.RESTR.CAVITY>
0.000954221

>  <SCORE.RESTR.norm>
1.90844e-05

>  <SCORE.SYSTEM>
0

>  <SCORE.SYSTEM.CONST>
0

>  <SCORE.SYSTEM.DIHEDRAL>
0

>  <SCORE.SYSTEM.norm>
0

>  <SCORE.heavy>
50

>  <SCORE.norm>
0.183049

$$$$
