FB1.pdb
  RxDock  10072001063D
librxdock.so/0.1.0
 59 58  0  0  0  0  0  0  0  0999 V2000
    5.8515   -3.2414   -2.5851 C   0  0  0  0  0  0
    5.0350   -3.0823   -1.3048 C   0  0  0  0  0  0
    5.9078   -2.6193   -0.1267 C   0  0  0  0  0  0
    5.0926   -2.0323    1.0526 C   0  0  0  0  0  0
    4.0608   -3.0204    1.7002 C   0  0  0  0  0  0
    4.8154   -4.3022    2.1225 C   0  0  0  0  0  0
    3.2710   -2.3968    2.9270 C   0  0  0  0  0  0
    2.0444   -3.2475    3.5084 C   0  0  0  0  0  0
    1.0169   -2.7368    4.6092 C   0  0  0  0  0  0
    1.6904   -2.3286    6.0587 C   0  0  0  0  0  0
    0.6022   -1.7282    6.9473 C   0  0  0  0  0  0
    2.4349   -3.5013    6.8432 C   0  0  0  0  0  0
    3.4490   -3.2636    8.0817 C   0  0  0  0  0  0
    4.0881   -4.4488    8.8835 C   0  0  0  0  0  0
    3.1202   -5.5732    9.4734 C   0  0  0  0  0  0
    3.6198   -6.8944   10.1800 C   0  0  0  0  0  0
    2.5831   -7.8724   10.7933 C   0  0  0  0  0  0
    1.8740   -7.4061   12.1234 C   0  0  0  0  0  0
    0.6648   -6.4770   11.9589 C   0  0  0  0  0  0
   -0.7110   -7.1123   11.6098 C   0  0  0  0  0  0
   -0.7890   -8.5340   10.9789 C   0  0  0  0  0  0
   -2.1752   -9.1548   10.8769 C   0  0  0  0  0  0
   -0.0982   -8.5693    9.6759 N   0  0  0  0  0  0
   -1.3959   -7.2284   12.8831 O   0  0  0  0  0  0
    1.4552   -8.5762   12.8342 O   0  0  0  0  0  0
    4.5615   -2.5497    7.5166 O   0  0  0  0  0  0
    1.2100   -3.5887    2.3683 O   0  0  0  0  0  0
    1.6048   -4.6434    1.6087 C   0  0  0  0  0  0
    2.3448   -5.5438    1.9569 O   0  0  0  0  0  0
    0.8916   -4.5713    0.2867 C   0  0  0  0  0  0
    1.8485   -4.7071   -0.9085 C   0  0  0  0  0  0
    2.0767   -6.1682   -1.3168 C   0  0  0  0  0  0
    0.8057   -6.7912   -1.8456 C   0  0  0  0  0  0
   -0.3087   -6.5421   -1.3987 O   0  0  0  0  0  0
    1.0110   -7.6470   -2.8577 O   0  0  0  0  0  0
    1.1942   -3.9352   -2.0626 C   0  0  0  0  0  0
    0.1449   -4.2796   -2.5850 O   0  0  0  0  0  0
    1.8955   -2.8748   -2.4865 O   0  0  0  0  0  0
    4.2011   -1.9624    3.9976 O   0  0  0  0  0  0
    4.7220   -0.6806    3.9381 C   0  0  0  0  0  0
    4.8862   -0.0429    2.9062 O   0  0  0  0  0  0
    5.0788   -0.1304    5.3252 C   0  0  0  0  0  0
    3.9569    0.6855    6.0394 C   0  0  0  0  0  0
    3.7674    0.4826    7.5538 C   0  0  0  0  0  0
    4.9365    0.9677    8.3614 C   0  0  0  0  0  0
    5.9126    0.3006    8.6756 O   0  0  0  0  0  0
    4.8206    2.2588    8.7078 O   0  0  0  0  0  0
    4.0098    2.1976    5.7882 C   0  0  0  0  0  0
    5.0085    2.7669    5.3942 O   0  0  0  0  0  0
    2.8370    2.8500    5.9307 O   0  0  0  0  0  0
   -0.7565   -8.3119    8.9417 H   0  0  0  0  0  0
    0.1612   -9.5366    9.4698 H   0  0  0  0  0  0
   -2.3403   -7.3431   12.6457 H   0  0  0  0  0  0
    2.2519   -9.0625   13.1158 H   0  0  0  0  0  0
    4.9206   -3.0816    6.7868 H   0  0  0  0  0  0
    0.2595   -7.7539   -3.4719 H   0  0  0  0  0  0
    2.7917   -2.7857   -2.0772 H   0  0  0  0  0  0
    5.7290    2.5882    8.8738 H   0  0  0  0  0  0
    2.0341    2.2849    5.8841 H   0  0  0  0  0  0
  1  2  1  0  0  0
  2  3  1  0  0  0
  3  4  1  0  0  0
  4  5  1  0  0  0
  5  6  1  0  0  0
  5  7  1  0  0  0
  7  8  1  0  0  0
  7 39  1  0  0  0
  8  9  1  0  0  0
  8 27  1  0  0  0
  9 10  1  0  0  0
 10 11  1  0  0  0
 10 12  1  0  0  0
 12 13  1  0  0  0
 13 14  1  0  0  0
 13 26  1  0  0  0
 14 15  1  0  0  0
 15 16  1  0  0  0
 16 17  1  0  0  0
 17 18  1  0  0  0
 18 19  1  0  0  0
 18 25  1  0  0  0
 19 20  1  0  0  0
 20 21  1  0  0  0
 20 24  1  0  0  0
 21 22  1  0  0  0
 21 23  1  0  0  0
 23 51  1  0  0  0
 23 52  1  0  0  0
 24 53  1  0  0  0
 25 54  1  0  0  0
 26 55  1  0  0  0
 27 28  1  0  0  0
 28 29  2  0  0  0
 28 30  1  0  0  0
 30 31  1  0  0  0
 31 32  1  0  0  0
 31 36  1  0  0  0
 32 33  1  0  0  0
 33 34  2  0  0  0
 33 35  1  0  0  0
 35 56  1  0  0  0
 36 37  2  0  0  0
 36 38  1  0  0  0
 38 57  1  0  0  0
 39 40  1  0  0  0
 40 41  2  0  0  0
 40 42  1  0  0  0
 42 43  1  0  0  0
 43 44  1  0  0  0
 43 48  1  0  0  0
 44 45  1  0  0  0
 45 46  2  0  0  0
 45 47  1  0  0  0
 47 58  1  0  0  0
 48 49  2  0  0  0
 48 50  1  0  0  0
 50 59  1  0  0  0
M  END
>  <AUTHOR>
    GENERATED BY OPEN BABEL 2.4.1

>  <CHROM.1>
162.30858596,60.07217865,54.85799666,170.94469781,-172.25971552,88.00684918
-60.10687149,80.57307442,174.25382464,164.89319451,175.98509497,-52.26141748
-56.80552865,173.88911950,176.18173868,-72.61148943,83.15904663,81.08120093
66.00944597,-20.34339904,170.69353339,162.02118167,-88.49884757,21.46277776
129.98299037,88.01146559,65.76426673,-66.02312530,-36.42440595,-153.54180894
6.85246636,-27.33830227,-91.96886075,140.02474165,66.17227539,-19.37850113
-89.87959450,-156.43793123,-19.36857325,2.60618230,-3.59640570,4.87360402
1.30156842,-1.08311007,-1.60356686

>  <COMPND>
    UNNAMED

>  <MASTER>
        0    0    0    0    0    0    0    0  109    0  109    0

>  <Name>
FB1.pdb

>  <RI>
0

>  <Rbt.Current_Directory>
/cluster/tossine/FB1_39T3/p3/0_clust01

>  <Rbt.Executable>
rbdock/0.1.0

>  <Rbt.Library>
librxdock.so/0.1.0

>  <Rbt.Parameter_File>
/cluster/rxdock/data/scripts/dock.prm

>  <Rbt.Receptor>
rx_4.prm

>  <SCORE>
8.64326

>  <SCORE.INTER>
-1.09409

>  <SCORE.INTER.CONST>
1

>  <SCORE.INTER.POLAR>
-1.80267

>  <SCORE.INTER.REPUL>
0.130735

>  <SCORE.INTER.ROT>
32

>  <SCORE.INTER.VDW>
-33.0187

>  <SCORE.INTER.norm>
-0.0218818

>  <SCORE.INTRA>
9.73735

>  <SCORE.INTRA.DIHEDRAL>
13.9183

>  <SCORE.INTRA.DIHEDRAL.0>
47.3121

>  <SCORE.INTRA.POLAR>
1.47808

>  <SCORE.INTRA.POLAR.0>
-1.47808

>  <SCORE.INTRA.REPUL>
0

>  <SCORE.INTRA.REPUL.0>
0

>  <SCORE.INTRA.VDW>
-2.24728

>  <SCORE.INTRA.VDW.0>
-2.78316

>  <SCORE.INTRA.norm>
0.194747

>  <SCORE.RESTR>
0

>  <SCORE.RESTR.CAVITY>
0

>  <SCORE.RESTR.norm>
0

>  <SCORE.SYSTEM>
0

>  <SCORE.SYSTEM.CONST>
0

>  <SCORE.SYSTEM.DIHEDRAL>
0

>  <SCORE.SYSTEM.norm>
0

>  <SCORE.heavy>
50

>  <SCORE.norm>
0.172865

$$$$
