FB1.pdb
  RxDock  10072000343D
librxdock.so/0.1.0
 59 58  0  0  0  0  0  0  0  0999 V2000
    8.5730   -0.4050   -7.6561 C   0  0  0  0  0  0
    8.1366   -0.4954   -6.1957 C   0  0  0  0  0  0
    6.7332   -1.1084   -6.0578 C   0  0  0  0  0  0
    6.2621   -1.2484   -4.5887 C   0  0  0  0  0  0
    5.9980    0.1080   -3.8466 C   0  0  0  0  0  0
    4.5231    0.5095   -4.0793 C   0  0  0  0  0  0
    6.3347    0.0579   -2.2967 C   0  0  0  0  0  0
    6.0866    1.3990   -1.4565 C   0  0  0  0  0  0
    6.7032    1.7084   -0.0239 C   0  0  0  0  0  0
    5.6106    2.1678    1.1235 C   0  0  0  0  0  0
    5.3834    0.9940    2.0746 C   0  0  0  0  0  0
    5.9797    3.4730    1.9633 C   0  0  0  0  0  0
    5.0198    4.1299    3.0883 C   0  0  0  0  0  0
    4.8749    3.5244    4.5266 C   0  0  0  0  0  0
    4.1768    2.0968    4.6805 C   0  0  0  0  0  0
    4.3003    1.1807    5.9612 C   0  0  0  0  0  0
    3.7729   -0.2777    5.9117 C   0  0  0  0  0  0
    4.0616   -1.1756    7.1765 C   0  0  0  0  0  0
    3.4323   -0.7126    8.4964 C   0  0  0  0  0  0
    1.8836   -0.7562    8.6301 C   0  0  0  0  0  0
    1.2151   -0.9714   10.0201 C   0  0  0  0  0  0
   -0.2397   -1.4194   10.0101 C   0  0  0  0  0  0
    2.0348   -1.8601   10.8655 N   0  0  0  0  0  0
    1.4404    0.5560    8.1994 O   0  0  0  0  0  0
    3.5994   -2.5005    6.8924 O   0  0  0  0  0  0
    5.5396    5.4550    3.2896 O   0  0  0  0  0  0
    6.5509    2.4938   -2.2921 O   0  0  0  0  0  0
    7.8929    2.6090   -2.4684 C   0  0  0  0  0  0
    8.7373    1.8130   -2.1041 O   0  0  0  0  0  0
    8.1615    3.8433   -3.2844 C   0  0  0  0  0  0
    9.6606    4.0681   -3.5388 C   0  0  0  0  0  0
   10.4846    4.0624   -2.2449 C   0  0  0  0  0  0
   10.5986    5.4532   -1.6651 C   0  0  0  0  0  0
   10.9179    6.4380   -2.3224 O   0  0  0  0  0  0
   10.3143    5.5112   -0.3557 O   0  0  0  0  0  0
   10.1101    2.9199   -4.4529 C   0  0  0  0  0  0
    9.3608    2.0281   -4.8211 O   0  0  0  0  0  0
   11.4102    2.9474   -4.7766 O   0  0  0  0  0  0
    5.7121   -1.1237   -1.6515 O   0  0  0  0  0  0
    6.2054   -1.5422   -0.4270 C   0  0  0  0  0  0
    7.3885   -1.7416   -0.1842 O   0  0  0  0  0  0
    5.0955   -1.7336    0.6151 C   0  0  0  0  0  0
    4.3280   -3.0903    0.5458 C   0  0  0  0  0  0
    3.9830   -3.6560   -0.8439 C   0  0  0  0  0  0
    2.9885   -4.7797   -0.7894 C   0  0  0  0  0  0
    3.2528   -5.9574   -0.5900 O   0  0  0  0  0  0
    1.7274   -4.3579   -0.9680 O   0  0  0  0  0  0
    4.9689   -4.2273    1.3513 C   0  0  0  0  0  0
    4.3988   -4.7934    2.2630 O   0  0  0  0  0  0
    6.1775   -4.6380    0.9131 O   0  0  0  0  0  0
    2.0203   -2.8007   10.4736 H   0  0  0  0  0  0
    1.5845   -1.9485   11.7793 H   0  0  0  0  0  0
    1.6852    0.6001    7.2510 H   0  0  0  0  0  0
    3.7811   -3.0594    7.6703 H   0  0  0  0  0  0
    6.4176    5.3747    3.6984 H   0  0  0  0  0  0
    9.9880    4.6789    0.0371 H   0  0  0  0  0  0
   11.9167    3.6971   -4.3765 H   0  0  0  0  0  0
    1.7576   -3.3780   -0.9809 H   0  0  0  0  0  0
    6.5322   -4.1472    0.1389 H   0  0  0  0  0  0
  1  2  1  0  0  0
  2  3  1  0  0  0
  3  4  1  0  0  0
  4  5  1  0  0  0
  5  6  1  0  0  0
  5  7  1  0  0  0
  7  8  1  0  0  0
  7 39  1  0  0  0
  8  9  1  0  0  0
  8 27  1  0  0  0
  9 10  1  0  0  0
 10 11  1  0  0  0
 10 12  1  0  0  0
 12 13  1  0  0  0
 13 14  1  0  0  0
 13 26  1  0  0  0
 14 15  1  0  0  0
 15 16  1  0  0  0
 16 17  1  0  0  0
 17 18  1  0  0  0
 18 19  1  0  0  0
 18 25  1  0  0  0
 19 20  1  0  0  0
 20 21  1  0  0  0
 20 24  1  0  0  0
 21 22  1  0  0  0
 21 23  1  0  0  0
 23 51  1  0  0  0
 23 52  1  0  0  0
 24 53  1  0  0  0
 25 54  1  0  0  0
 26 55  1  0  0  0
 27 28  1  0  0  0
 28 29  2  0  0  0
 28 30  1  0  0  0
 30 31  1  0  0  0
 31 32  1  0  0  0
 31 36  1  0  0  0
 32 33  1  0  0  0
 33 34  2  0  0  0
 33 35  1  0  0  0
 35 56  1  0  0  0
 36 37  2  0  0  0
 36 38  1  0  0  0
 38 57  1  0  0  0
 39 40  1  0  0  0
 40 41  2  0  0  0
 40 42  1  0  0  0
 42 43  1  0  0  0
 43 44  1  0  0  0
 43 48  1  0  0  0
 44 45  1  0  0  0
 45 46  2  0  0  0
 45 47  1  0  0  0
 47 58  1  0  0  0
 48 49  2  0  0  0
 48 50  1  0  0  0
 50 59  1  0  0  0
M  END
>  <AUTHOR>
    GENERATED BY OPEN BABEL 2.4.1

>  <CHROM.1>
178.71816935,67.60883827,89.43003239,-179.66341619,-162.52389919,161.30756005
-128.05195476,-71.10674189,104.77897314,177.23100162,77.18451448,-66.95585600
-67.16988762,162.49553579,-170.14181573,174.00198572,62.54019757,67.08343105
179.67613070,150.73922047,-161.94707817,64.92053133,-68.30145587,7.66448173
179.85116695,-53.08494680,-90.41479536,-1.88176037,-48.51372210,-5.73490933
0.72486456,-50.47123720,81.93736673,-40.02177222,-166.86216514,119.55795930
-84.65203580,-6.97521762,1.71326485,5.83496426,0.32442455,0.68435380,0.54202187
-0.99283302,-2.23237994

>  <COMPND>
    UNNAMED

>  <MASTER>
        0    0    0    0    0    0    0    0  109    0  109    0

>  <Name>
FB1.pdb

>  <RI>
0

>  <Rbt.Current_Directory>
/cluster/tossine/FB1_39T3/p3/0_clust01

>  <Rbt.Executable>
rbdock/0.1.0

>  <Rbt.Library>
librxdock.so/0.1.0

>  <Rbt.Parameter_File>
/cluster/rxdock/data/scripts/dock.prm

>  <Rbt.Receptor>
rx_3.prm

>  <SCORE>
5.67973

>  <SCORE.INTER>
-6.21186

>  <SCORE.INTER.CONST>
1

>  <SCORE.INTER.POLAR>
-2.43764

>  <SCORE.INTER.REPUL>
0.203829

>  <SCORE.INTER.ROT>
32

>  <SCORE.INTER.VDW>
-36.343

>  <SCORE.INTER.norm>
-0.124237

>  <SCORE.INTRA>
11.8916

>  <SCORE.INTRA.DIHEDRAL>
8.37753

>  <SCORE.INTRA.DIHEDRAL.0>
47.3121

>  <SCORE.INTRA.POLAR>
1.47808

>  <SCORE.INTRA.POLAR.0>
-1.47808

>  <SCORE.INTRA.REPUL>
0

>  <SCORE.INTRA.REPUL.0>
0

>  <SCORE.INTRA.VDW>
2.67736

>  <SCORE.INTRA.VDW.0>
-2.78316

>  <SCORE.INTRA.norm>
0.237832

>  <SCORE.RESTR>
0

>  <SCORE.RESTR.CAVITY>
0

>  <SCORE.RESTR.norm>
0

>  <SCORE.SYSTEM>
0

>  <SCORE.SYSTEM.CONST>
0

>  <SCORE.SYSTEM.DIHEDRAL>
0

>  <SCORE.SYSTEM.norm>
0

>  <SCORE.heavy>
50

>  <SCORE.norm>
0.113595

$$$$
