FB1.pdb
  RxDock  10062022353D
librxdock.so/0.1.0
 59 58  0  0  0  0  0  0  0  0999 V2000
    1.5531   -4.3184    0.7091 C   0  0  0  0  0  0
    1.2400   -4.3429    2.2033 C   0  0  0  0  0  0
    1.8010   -3.1053    2.9229 C   0  0  0  0  0  0
    1.7670   -3.2206    4.4674 C   0  0  0  0  0  0
    2.6028   -4.4081    5.0606 C   0  0  0  0  0  0
    4.0976   -4.1442    4.7665 C   0  0  0  0  0  0
    2.3619   -4.6390    6.6119 C   0  0  0  0  0  0
    2.5865   -3.3800    7.5766 C   0  0  0  0  0  0
    3.3478   -3.4207    8.9719 C   0  0  0  0  0  0
    4.9399   -3.8445    8.8881 C   0  0  0  0  0  0
    5.7873   -2.5897    9.0914 C   0  0  0  0  0  0
    5.4186   -4.9827    9.8981 C   0  0  0  0  0  0
    5.2013   -6.5669    9.6494 C   0  0  0  0  0  0
    5.5269   -7.6414   10.7428 C   0  0  0  0  0  0
    5.7297   -9.1558   10.2796 C   0  0  0  0  0  0
    5.8911  -10.3744   11.2714 C   0  0  0  0  0  0
    4.6275  -11.0320   11.8866 C   0  0  0  0  0  0
    3.5322  -10.0534   12.4625 C   0  0  0  0  0  0
    2.3277  -10.7099   13.1485 C   0  0  0  0  0  0
    1.6385  -11.9097   12.4387 C   0  0  0  0  0  0
    2.3890  -13.2631   12.2641 C   0  0  0  0  0  0
    2.6338  -14.0705   13.5312 C   0  0  0  0  0  0
    1.7444  -14.0914   11.2273 N   0  0  0  0  0  0
    0.4925  -12.2207   13.2717 O   0  0  0  0  0  0
    4.1697   -9.1799   13.4009 O   0  0  0  0  0  0
    3.7948   -6.7106    9.3891 O   0  0  0  0  0  0
    3.3178   -2.3957    6.7963 O   0  0  0  0  0  0
    2.6837   -1.2239    6.5312 C   0  0  0  0  0  0
    2.8321   -0.5337    5.5408 O   0  0  0  0  0  0
    1.6833   -0.9663    7.6240 C   0  0  0  0  0  0
    2.2353   -0.0466    8.7249 C   0  0  0  0  0  0
    3.7580   -0.1569    8.8753 C   0  0  0  0  0  0
    4.4646    0.8980    8.0560 C   0  0  0  0  0  0
    4.8463    0.7195    6.9044 O   0  0  0  0  0  0
    4.6351    2.0567    8.7095 O   0  0  0  0  0  0
    1.8502    1.3813    8.3142 C   0  0  0  0  0  0
    1.2048    2.1305    9.0316 O   0  0  0  0  0  0
    2.2386    1.7252    7.0786 O   0  0  0  0  0  0
    1.0575   -5.3005    6.8585 O   0  0  0  0  0  0
    1.0557   -6.5600    7.4346 C   0  0  0  0  0  0
    1.2782   -7.6018    6.8317 O   0  0  0  0  0  0
    0.7407   -6.5149    8.9356 C   0  0  0  0  0  0
    0.2682   -5.1341    9.4875 C   0  0  0  0  0  0
   -1.1272   -4.6299    9.0764 C   0  0  0  0  0  0
   -1.1091   -3.2291    8.5361 C   0  0  0  0  0  0
   -1.2765   -2.9135    7.3661 O   0  0  0  0  0  0
   -0.9026   -2.3123    9.4937 O   0  0  0  0  0  0
    0.3726   -4.9865   11.0105 C   0  0  0  0  0  0
    0.7561   -3.9676   11.5504 O   0  0  0  0  0  0
   -0.0930   -6.0311   11.7271 O   0  0  0  0  0  0
    0.8219  -13.7105   11.0212 H   0  0  0  0  0  0
    1.5652  -15.0201   11.6158 H   0  0  0  0  0  0
   -0.0540  -11.4069   13.2530 H   0  0  0  0  0  0
    3.4887   -8.5982   13.7861 H   0  0  0  0  0  0
    3.6337   -7.6256    9.1039 H   0  0  0  0  0  0
    5.1295    2.7421    8.2204 H   0  0  0  0  0  0
    2.6801    0.9999    6.5708 H   0  0  0  0  0  0
   -0.9023   -2.7932   10.3481 H   0  0  0  0  0  0
   -0.4495   -6.7781   11.1969 H   0  0  0  0  0  0
  1  2  1  0  0  0
  2  3  1  0  0  0
  3  4  1  0  0  0
  4  5  1  0  0  0
  5  6  1  0  0  0
  5  7  1  0  0  0
  7  8  1  0  0  0
  7 39  1  0  0  0
  8  9  1  0  0  0
  8 27  1  0  0  0
  9 10  1  0  0  0
 10 11  1  0  0  0
 10 12  1  0  0  0
 12 13  1  0  0  0
 13 14  1  0  0  0
 13 26  1  0  0  0
 14 15  1  0  0  0
 15 16  1  0  0  0
 16 17  1  0  0  0
 17 18  1  0  0  0
 18 19  1  0  0  0
 18 25  1  0  0  0
 19 20  1  0  0  0
 20 21  1  0  0  0
 20 24  1  0  0  0
 21 22  1  0  0  0
 21 23  1  0  0  0
 23 51  1  0  0  0
 23 52  1  0  0  0
 24 53  1  0  0  0
 25 54  1  0  0  0
 26 55  1  0  0  0
 27 28  1  0  0  0
 28 29  2  0  0  0
 28 30  1  0  0  0
 30 31  1  0  0  0
 31 32  1  0  0  0
 31 36  1  0  0  0
 32 33  1  0  0  0
 33 34  2  0  0  0
 33 35  1  0  0  0
 35 56  1  0  0  0
 36 37  2  0  0  0
 36 38  1  0  0  0
 38 57  1  0  0  0
 39 40  1  0  0  0
 40 41  2  0  0  0
 40 42  1  0  0  0
 42 43  1  0  0  0
 43 44  1  0  0  0
 43 48  1  0  0  0
 44 45  1  0  0  0
 45 46  2  0  0  0
 45 47  1  0  0  0
 47 58  1  0  0  0
 48 49  2  0  0  0
 48 50  1  0  0  0
 50 59  1  0  0  0
M  END
>  <AUTHOR>
    GENERATED BY OPEN BABEL 2.4.1

>  <CHROM.1>
-168.14566420,60.77473444,65.56740815,-54.62301393,-136.43252892,116.61461969
62.56745346,115.47841678,105.30703576,80.90537725,-172.30284026,-160.79795040
171.75967087,-172.42107141,82.51530517,-45.99709086,-176.26015468,-46.08195554
-177.68648674,66.89800589,69.65879894,61.38182097,-14.39338699,-148.77176330
95.70370547,-28.57515911,93.91939131,123.76549431,-92.05355722,177.01007333
3.15909027,-79.41229364,9.15731776,70.19264596,-128.97831243,139.17177671
108.40251738,-5.59578645,0.07816777,2.46356684,-4.97644901,8.75296094,1.64773145
-1.24833070,-0.40151553

>  <COMPND>
    UNNAMED

>  <MASTER>
        0    0    0    0    0    0    0    0  109    0  109    0

>  <Name>
FB1.pdb

>  <RI>
0

>  <Rbt.Current_Directory>
/cluster/tossine/FB1_39T3/p3/0_clust01

>  <Rbt.Executable>
rbdock/0.1.0

>  <Rbt.Library>
librxdock.so/0.1.0

>  <Rbt.Parameter_File>
/cluster/rxdock/data/scripts/dock.prm

>  <Rbt.Receptor>
rx_0.prm

>  <SCORE>
33.1826

>  <SCORE.INTER>
0.609071

>  <SCORE.INTER.CONST>
1

>  <SCORE.INTER.POLAR>
-1.79533

>  <SCORE.INTER.REPUL>
0.321396

>  <SCORE.INTER.ROT>
32

>  <SCORE.INTER.VDW>
-32.2938

>  <SCORE.INTER.norm>
0.0121814

>  <SCORE.INTRA>
32.5735

>  <SCORE.INTRA.DIHEDRAL>
36.7403

>  <SCORE.INTRA.DIHEDRAL.0>
47.3121

>  <SCORE.INTRA.POLAR>
1.47808

>  <SCORE.INTRA.POLAR.0>
-1.47808

>  <SCORE.INTRA.REPUL>
0

>  <SCORE.INTRA.REPUL.0>
0

>  <SCORE.INTRA.VDW>
9.17791

>  <SCORE.INTRA.VDW.0>
-2.78316

>  <SCORE.INTRA.norm>
0.651471

>  <SCORE.RESTR>
0

>  <SCORE.RESTR.CAVITY>
0

>  <SCORE.RESTR.norm>
0

>  <SCORE.SYSTEM>
0

>  <SCORE.SYSTEM.CONST>
0

>  <SCORE.SYSTEM.DIHEDRAL>
0

>  <SCORE.SYSTEM.norm>
0

>  <SCORE.heavy>
50

>  <SCORE.norm>
0.663652

$$$$
