FB1.pdb
  RxDock  10072000343D
librxdock.so/0.1.0
 59 58  0  0  0  0  0  0  0  0999 V2000
    6.9918   -8.9215   10.2200 C   0  0  0  0  0  0
    7.1646   -8.0351    8.9889 C   0  0  0  0  0  0
    5.8100   -7.5986    8.4069 C   0  0  0  0  0  0
    5.9264   -6.4746    7.3473 C   0  0  0  0  0  0
    6.7170   -5.2033    7.8156 C   0  0  0  0  0  0
    8.1044   -5.2157    7.1332 C   0  0  0  0  0  0
    5.9549   -3.8418    7.5271 C   0  0  0  0  0  0
    4.4410   -3.9520    7.0148 C   0  0  0  0  0  0
    3.9690   -4.7424    5.7184 C   0  0  0  0  0  0
    3.1780   -3.8315    4.5932 C   0  0  0  0  0  0
    4.0023   -2.5746    4.3199 C   0  0  0  0  0  0
    2.8367   -4.5577    3.2144 C   0  0  0  0  0  0
    2.6164   -3.7831    1.8108 C   0  0  0  0  0  0
    3.7540   -2.9552    1.1206 C   0  0  0  0  0  0
    4.8453   -3.7397    0.2587 C   0  0  0  0  0  0
    6.3452   -3.2749    0.0886 C   0  0  0  0  0  0
    6.6593   -1.7721   -0.1356 C   0  0  0  0  0  0
    6.0446   -1.1080   -1.4280 C   0  0  0  0  0  0
    6.5181    0.3146   -1.7516 C   0  0  0  0  0  0
    6.1917    0.8989   -3.1552 C   0  0  0  0  0  0
    4.7146    1.1171   -3.5977 C   0  0  0  0  0  0
    4.4775    1.3292   -5.0863 C   0  0  0  0  0  0
    3.8452    0.0472   -3.0724 N   0  0  0  0  0  0
    6.7811    2.2242   -3.1478 O   0  0  0  0  0  0
    6.3456   -1.9524   -2.5443 O   0  0  0  0  0  0
    2.2785   -4.8147    0.8684 O   0  0  0  0  0  0
    3.6879   -4.5583    8.1000 O   0  0  0  0  0  0
    2.3342   -4.4635    8.0396 C   0  0  0  0  0  0
    1.6897   -3.9128    7.1674 O   0  0  0  0  0  0
    1.7508   -5.2447    9.1845 C   0  0  0  0  0  0
    0.2485   -4.9813    9.3742 C   0  0  0  0  0  0
   -0.4642   -6.1316   10.0970 C   0  0  0  0  0  0
   -0.5369   -7.3624    9.2236 C   0  0  0  0  0  0
    0.1625   -7.5319    8.2307 O   0  0  0  0  0  0
   -1.4430   -8.2598    9.6391 O   0  0  0  0  0  0
    0.1474   -3.6953   10.2060 C   0  0  0  0  0  0
    0.2846   -3.6736   11.4197 O   0  0  0  0  0  0
   -0.1541   -2.5996    9.4958 O   0  0  0  0  0  0
    6.0873   -2.9021    8.6669 O   0  0  0  0  0  0
    5.4442   -1.6779    8.5900 C   0  0  0  0  0  0
    5.0954   -1.0126    9.5566 O   0  0  0  0  0  0
    5.2096   -1.2317    7.1409 C   0  0  0  0  0  0
    3.9028   -0.4182    6.8857 C   0  0  0  0  0  0
    2.5688   -1.0263    7.3558 C   0  0  0  0  0  0
    1.5239   -1.0524    6.2779 C   0  0  0  0  0  0
    1.6694   -0.6464    5.1331 O   0  0  0  0  0  0
    0.3719   -1.6009    6.6931 O   0  0  0  0  0  0
    3.9438    1.0292    7.3912 C   0  0  0  0  0  0
    4.7928    1.4365    8.1594 O   0  0  0  0  0  0
    3.0329    1.8605    6.8430 O   0  0  0  0  0  0
    3.1924   -0.2403   -3.8002 H   0  0  0  0  0  0
    3.2585    0.4373   -2.3314 H   0  0  0  0  0  0
    6.7860    2.4973   -4.0895 H   0  0  0  0  0  0
    5.8248   -2.7717   -2.4551 H   0  0  0  0  0  0
    1.4943   -5.2817    1.2022 H   0  0  0  0  0  0
   -1.7902   -8.1146   10.5402 H   0  0  0  0  0  0
    0.0575   -2.6648    8.5316 H   0  0  0  0  0  0
   -0.3037   -1.3816    6.0172 H   0  0  0  0  0  0
    2.4554    1.4569    6.1576 H   0  0  0  0  0  0
  1  2  1  0  0  0
  2  3  1  0  0  0
  3  4  1  0  0  0
  4  5  1  0  0  0
  5  6  1  0  0  0
  5  7  1  0  0  0
  7  8  1  0  0  0
  7 39  1  0  0  0
  8  9  1  0  0  0
  8 27  1  0  0  0
  9 10  1  0  0  0
 10 11  1  0  0  0
 10 12  1  0  0  0
 12 13  1  0  0  0
 13 14  1  0  0  0
 13 26  1  0  0  0
 14 15  1  0  0  0
 15 16  1  0  0  0
 16 17  1  0  0  0
 17 18  1  0  0  0
 18 19  1  0  0  0
 18 25  1  0  0  0
 19 20  1  0  0  0
 20 21  1  0  0  0
 20 24  1  0  0  0
 21 22  1  0  0  0
 21 23  1  0  0  0
 23 51  1  0  0  0
 23 52  1  0  0  0
 24 53  1  0  0  0
 25 54  1  0  0  0
 26 55  1  0  0  0
 27 28  1  0  0  0
 28 29  2  0  0  0
 28 30  1  0  0  0
 30 31  1  0  0  0
 31 32  1  0  0  0
 31 36  1  0  0  0
 32 33  1  0  0  0
 33 34  2  0  0  0
 33 35  1  0  0  0
 35 56  1  0  0  0
 36 37  2  0  0  0
 36 38  1  0  0  0
 38 57  1  0  0  0
 39 40  1  0  0  0
 40 41  2  0  0  0
 40 42  1  0  0  0
 42 43  1  0  0  0
 43 44  1  0  0  0
 43 48  1  0  0  0
 44 45  1  0  0  0
 45 46  2  0  0  0
 45 47  1  0  0  0
 47 58  1  0  0  0
 48 49  2  0  0  0
 48 50  1  0  0  0
 50 59  1  0  0  0
M  END
>  <AUTHOR>
    GENERATED BY OPEN BABEL 2.4.1

>  <CHROM.1>
168.12139186,-53.45783697,105.56916005,8.58997641,-57.06663770,-178.14142721
-121.70707963,164.47083521,49.48526610,-155.08375840,63.14188745,81.15184904
57.22173448,-149.23094887,-41.73387746,-60.92107028,-171.55606407,167.06414996
69.47815939,63.03165585,-164.05132489,165.58071898,-137.82353572,-0.43242879
168.75451194,156.36180631,-69.45499895,-80.41023752,17.15802916,-13.27539922
-21.99979270,154.89512148,146.36732541,-53.34823394,-128.66105863,-14.37055394
0.04446130,166.53370556,-1.69845742,3.72649651,-3.01957940,5.19770999,-1.96745526
0.90239781,-0.84238995

>  <COMPND>
    UNNAMED

>  <MASTER>
        0    0    0    0    0    0    0    0  109    0  109    0

>  <Name>
FB1.pdb

>  <RI>
0

>  <Rbt.Current_Directory>
/cluster/tossine/FB1_39T3/p3/0_clust01

>  <Rbt.Executable>
rbdock/0.1.0

>  <Rbt.Library>
librxdock.so/0.1.0

>  <Rbt.Parameter_File>
/cluster/rxdock/data/scripts/dock.prm

>  <Rbt.Receptor>
rx_3.prm

>  <SCORE>
4.07041

>  <SCORE.INTER>
-8.04814

>  <SCORE.INTER.CONST>
1

>  <SCORE.INTER.POLAR>
-4.52749

>  <SCORE.INTER.REPUL>
0.0804842

>  <SCORE.INTER.ROT>
32

>  <SCORE.INTER.VDW>
-30.4571

>  <SCORE.INTER.norm>
-0.160963

>  <SCORE.INTRA>
12.1186

>  <SCORE.INTRA.DIHEDRAL>
14.0868

>  <SCORE.INTRA.DIHEDRAL.0>
47.3121

>  <SCORE.INTRA.POLAR>
0.549682

>  <SCORE.INTRA.POLAR.0>
-1.47808

>  <SCORE.INTRA.REPUL>
0

>  <SCORE.INTRA.REPUL.0>
0

>  <SCORE.INTRA.VDW>
3.20625

>  <SCORE.INTRA.VDW.0>
-2.78316

>  <SCORE.INTRA.norm>
0.242371

>  <SCORE.RESTR>
0

>  <SCORE.RESTR.CAVITY>
0

>  <SCORE.RESTR.norm>
0

>  <SCORE.SYSTEM>
0

>  <SCORE.SYSTEM.CONST>
0

>  <SCORE.SYSTEM.DIHEDRAL>
0

>  <SCORE.SYSTEM.norm>
0

>  <SCORE.heavy>
50

>  <SCORE.norm>
0.0814082

$$$$
