FB1.pdb
  RxDock  10062023143D
librxdock.so/0.1.0
 59 58  0  0  0  0  0  0  0  0999 V2000
    2.0804    2.8919    7.5112 C   0  0  0  0  0  0
    2.3191    1.4050    7.7630 C   0  0  0  0  0  0
    3.8048    1.1021    8.0184 C   0  0  0  0  0  0
    4.7212    1.4503    6.8190 C   0  0  0  0  0  0
    5.2438    0.2153    6.0053 C   0  0  0  0  0  0
    6.1309   -0.6408    6.9385 C   0  0  0  0  0  0
    4.0839   -0.6586    5.3660 C   0  0  0  0  0  0
    4.5044   -1.6962    4.2202 C   0  0  0  0  0  0
    3.7544   -3.0617    3.9022 C   0  0  0  0  0  0
    3.3532   -3.9637    5.2239 C   0  0  0  0  0  0
    2.8067   -5.3080    4.7461 C   0  0  0  0  0  0
    4.5161   -4.2069    6.2885 C   0  0  0  0  0  0
    4.2673   -4.4047    7.8751 C   0  0  0  0  0  0
    3.3724   -5.5566    8.4481 C   0  0  0  0  0  0
    1.8070   -5.5263    8.1356 C   0  0  0  0  0  0
    0.7252   -6.3554    8.9337 C   0  0  0  0  0  0
    0.9248   -7.8812    9.1323 C   0  0  0  0  0  0
    1.5318   -8.3394   10.5146 C   0  0  0  0  0  0
    1.6344   -9.8525   10.7435 C   0  0  0  0  0  0
    2.0470  -10.3585   12.1549 C   0  0  0  0  0  0
    2.0777  -11.8830   12.4713 C   0  0  0  0  0  0
    2.7117  -12.7810   11.4182 C   0  0  0  0  0  0
    2.6670  -12.1321   13.8006 N   0  0  0  0  0  0
    3.4177   -9.9134   12.3188 O   0  0  0  0  0  0
    2.8410   -7.7719   10.6320 O   0  0  0  0  0  0
    5.5741   -4.6343    8.4284 O   0  0  0  0  0  0
    4.4576   -0.9598    2.9680 O   0  0  0  0  0  0
    5.4491   -0.0585    2.7450 C   0  0  0  0  0  0
    6.3959    0.1649    3.4751 O   0  0  0  0  0  0
    5.2397    0.5532    1.3873 C   0  0  0  0  0  0
    6.5186    0.5502    0.5347 C   0  0  0  0  0  0
    6.4683   -0.4828   -0.5983 C   0  0  0  0  0  0
    6.5463   -1.8910   -0.0559 C   0  0  0  0  0  0
    5.5688   -2.5269    0.3233 O   0  0  0  0  0  0
    7.7930   -2.3850   -0.0292 O   0  0  0  0  0  0
    6.6398    1.9646   -0.0490 C   0  0  0  0  0  0
    5.7423    2.7911    0.0136 O   0  0  0  0  0  0
    7.7975    2.2053   -0.6797 O   0  0  0  0  0  0
    3.2547   -1.2985    6.4162 O   0  0  0  0  0  0
    1.8937   -1.4264    6.1944 C   0  0  0  0  0  0
    1.2889   -0.9139    5.2616 O   0  0  0  0  0  0
    1.2078   -2.2939    7.2581 C   0  0  0  0  0  0
    0.6889   -1.5355    8.5191 C   0  0  0  0  0  0
   -0.6852   -1.9338    9.0882 C   0  0  0  0  0  0
   -1.7865   -1.8555    8.0706 C   0  0  0  0  0  0
   -2.5632   -0.9209    7.9303 O   0  0  0  0  0  0
   -1.8346   -2.9400    7.2820 O   0  0  0  0  0  0
    1.6738   -1.5036    9.6942 C   0  0  0  0  0  0
    2.0881   -0.4700   10.1807 O   0  0  0  0  0  0
    1.9744   -2.7048   10.2311 O   0  0  0  0  0  0
    2.6205  -13.1294   14.0051 H   0  0  0  0  0  0
    2.0755  -11.6903   14.5081 H   0  0  0  0  0  0
    3.6971  -10.2875   13.1809 H   0  0  0  0  0  0
    2.7466   -6.8060   10.7255 H   0  0  0  0  0  0
    6.0683   -3.7983    8.3894 H   0  0  0  0  0  0
    7.8549   -3.3541    0.0736 H   0  0  0  0  0  0
    8.4757    1.4922   -0.5782 H   0  0  0  0  0  0
   -1.1318   -3.5474    7.5958 H   0  0  0  0  0  0
    2.5649   -2.6775   11.0164 H   0  0  0  0  0  0
  1  2  1  0  0  0
  2  3  1  0  0  0
  3  4  1  0  0  0
  4  5  1  0  0  0
  5  6  1  0  0  0
  5  7  1  0  0  0
  7  8  1  0  0  0
  7 39  1  0  0  0
  8  9  1  0  0  0
  8 27  1  0  0  0
  9 10  1  0  0  0
 10 11  1  0  0  0
 10 12  1  0  0  0
 12 13  1  0  0  0
 13 14  1  0  0  0
 13 26  1  0  0  0
 14 15  1  0  0  0
 15 16  1  0  0  0
 16 17  1  0  0  0
 17 18  1  0  0  0
 18 19  1  0  0  0
 18 25  1  0  0  0
 19 20  1  0  0  0
 20 21  1  0  0  0
 20 24  1  0  0  0
 21 22  1  0  0  0
 21 23  1  0  0  0
 23 51  1  0  0  0
 23 52  1  0  0  0
 24 53  1  0  0  0
 25 54  1  0  0  0
 26 55  1  0  0  0
 27 28  1  0  0  0
 28 29  2  0  0  0
 28 30  1  0  0  0
 30 31  1  0  0  0
 31 32  1  0  0  0
 31 36  1  0  0  0
 32 33  1  0  0  0
 33 34  2  0  0  0
 33 35  1  0  0  0
 35 56  1  0  0  0
 36 37  2  0  0  0
 36 38  1  0  0  0
 38 57  1  0  0  0
 39 40  1  0  0  0
 40 41  2  0  0  0
 40 42  1  0  0  0
 42 43  1  0  0  0
 43 44  1  0  0  0
 43 48  1  0  0  0
 44 45  1  0  0  0
 45 46  2  0  0  0
 45 47  1  0  0  0
 47 58  1  0  0  0
 48 49  2  0  0  0
 48 50  1  0  0  0
 50 59  1  0  0  0
M  END
>  <AUTHOR>
    GENERATED BY OPEN BABEL 2.4.1

>  <CHROM.1>
-61.86326467,-105.53598135,-63.44388155,164.48813352,150.99854448,143.81098841
-44.67037871,73.17202880,-172.94723095,149.84685772,58.91094693,-66.38111156
70.80288824,-162.68238947,-51.56887596,98.22388828,175.82645213,-172.03273706
68.09682857,176.01019261,44.33798811,-176.09261124,176.46710993,2.30220558
-131.08559200,107.05623777,-70.12995826,-10.89936486,86.11568066,-163.64478216
-8.36801035,-8.86524783,89.13327346,138.70203800,-55.35952540,121.38971328
-97.58521927,1.80185622,-176.62492711,3.31117184,-3.02264920,6.50352395,1.13060016
0.85139086,-0.45076591

>  <COMPND>
    UNNAMED

>  <MASTER>
        0    0    0    0    0    0    0    0  109    0  109    0

>  <Name>
FB1.pdb

>  <RI>
0

>  <Rbt.Current_Directory>
/cluster/tossine/FB1_39T3/p3/0_clust01

>  <Rbt.Executable>
rbdock/0.1.0

>  <Rbt.Library>
librxdock.so/0.1.0

>  <Rbt.Parameter_File>
/cluster/rxdock/data/scripts/dock.prm

>  <Rbt.Receptor>
rx_1.prm

>  <SCORE>
-0.635889

>  <SCORE.INTER>
-1.79052

>  <SCORE.INTER.CONST>
1

>  <SCORE.INTER.POLAR>
-3.3354

>  <SCORE.INTER.REPUL>
0.453285

>  <SCORE.INTER.ROT>
32

>  <SCORE.INTER.VDW>
-30.1166

>  <SCORE.INTER.norm>
-0.0358103

>  <SCORE.INTRA>
1.15463

>  <SCORE.INTRA.DIHEDRAL>
2.49562

>  <SCORE.INTRA.DIHEDRAL.0>
47.3121

>  <SCORE.INTRA.POLAR>
1.16541

>  <SCORE.INTRA.POLAR.0>
-1.47808

>  <SCORE.INTRA.REPUL>
0

>  <SCORE.INTRA.REPUL.0>
0

>  <SCORE.INTRA.VDW>
-4.05557

>  <SCORE.INTRA.VDW.0>
-2.78316

>  <SCORE.INTRA.norm>
0.0230926

>  <SCORE.RESTR>
0

>  <SCORE.RESTR.CAVITY>
0

>  <SCORE.RESTR.norm>
0

>  <SCORE.SYSTEM>
0

>  <SCORE.SYSTEM.CONST>
0

>  <SCORE.SYSTEM.DIHEDRAL>
0

>  <SCORE.SYSTEM.norm>
0

>  <SCORE.heavy>
50

>  <SCORE.norm>
-0.0127178

$$$$
