FB1.pdb
  RxDock  10072001073D
librxdock.so/0.1.0
 59 58  0  0  0  0  0  0  0  0999 V2000
    3.1462    2.1215    7.0340 C   0  0  0  0  0  0
    4.5294    1.5021    6.8488 C   0  0  0  0  0  0
    4.7031    0.2325    7.6987 C   0  0  0  0  0  0
    3.7956   -0.9400    7.2500 C   0  0  0  0  0  0
    3.4943   -2.0058    8.3607 C   0  0  0  0  0  0
    2.7409   -1.3049    9.5147 C   0  0  0  0  0  0
    2.6797   -3.2601    7.8305 C   0  0  0  0  0  0
    3.3674   -4.1389    6.6811 C   0  0  0  0  0  0
    4.0194   -3.5585    5.3521 C   0  0  0  0  0  0
    3.8854   -4.5296    4.0254 C   0  0  0  0  0  0
    4.0881   -5.9793    4.4629 C   0  0  0  0  0  0
    2.5275   -4.4056    3.1975 C   0  0  0  0  0  0
    2.4575   -4.1242    1.6055 C   0  0  0  0  0  0
    3.1214   -5.0777    0.5538 C   0  0  0  0  0  0
    3.0283   -4.6837   -0.9906 C   0  0  0  0  0  0
    3.4726   -3.2873   -1.5799 C   0  0  0  0  0  0
    4.9735   -3.0232   -1.8717 C   0  0  0  0  0  0
    5.8908   -2.7145   -0.6258 C   0  0  0  0  0  0
    6.4876   -1.3034   -0.5546 C   0  0  0  0  0  0
    5.6102   -0.1073   -1.0213 C   0  0  0  0  0  0
    6.0770    1.3586   -0.7791 C   0  0  0  0  0  0
    7.4238    1.7475   -1.3726 C   0  0  0  0  0  0
    5.0285    2.3167   -1.1780 N   0  0  0  0  0  0
    5.5381   -0.2450   -2.4634 O   0  0  0  0  0  0
    5.1189   -2.9421    0.5583 O   0  0  0  0  0  0
    1.0551   -4.1354    1.2896 O   0  0  0  0  0  0
    4.4470   -4.8719    7.3211 O   0  0  0  0  0  0
    4.1187   -6.0317    7.9475 C   0  0  0  0  0  0
    3.0593   -6.2811    8.4906 O   0  0  0  0  0  0
    5.2516   -7.0049    7.7715 C   0  0  0  0  0  0
    6.4947   -6.6176    8.5882 C   0  0  0  0  0  0
    7.4936   -7.7740    8.7240 C   0  0  0  0  0  0
    6.9551   -8.8558    9.6312 C   0  0  0  0  0  0
    6.2055   -9.7488    9.2513 O   0  0  0  0  0  0
    7.3776   -8.7487   10.8997 O   0  0  0  0  0  0
    7.1449   -5.4473    7.8375 C   0  0  0  0  0  0
    8.0082   -5.5982    6.9863 O   0  0  0  0  0  0
    6.7224   -4.2369    8.2278 O   0  0  0  0  0  0
    2.1957   -4.0983    8.9543 O   0  0  0  0  0  0
    0.9222   -3.8681    9.4473 C   0  0  0  0  0  0
    0.1941   -2.9498    9.0938 O   0  0  0  0  0  0
    0.5086   -4.9028   10.5022 C   0  0  0  0  0  0
    0.4498   -6.3830   10.0126 C   0  0  0  0  0  0
   -0.0565   -7.4515   10.9986 C   0  0  0  0  0  0
    0.6782   -7.4364   12.3080 C   0  0  0  0  0  0
    1.8723   -7.6555   12.4588 O   0  0  0  0  0  0
   -0.1210   -7.1300   13.3414 O   0  0  0  0  0  0
   -0.3062   -6.5890    8.6941 C   0  0  0  0  0  0
   -1.4140   -7.0853    8.6388 O   0  0  0  0  0  0
    0.2945   -6.0831    7.5966 O   0  0  0  0  0  0
    4.1389    1.8256   -1.2545 H   0  0  0  0  0  0
    5.2300    2.6459   -2.1248 H   0  0  0  0  0  0
    4.8196    0.3649   -2.7338 H   0  0  0  0  0  0
    4.4085   -2.2752    0.5912 H   0  0  0  0  0  0
    0.7127   -5.0262    1.4730 H   0  0  0  0  0  0
    8.0298   -8.0406   11.0631 H   0  0  0  0  0  0
    7.1191   -3.4825    7.7254 H   0  0  0  0  0  0
   -1.0274   -7.0391   12.9787 H   0  0  0  0  0  0
   -0.2202   -6.1611    6.7628 H   0  0  0  0  0  0
  1  2  1  0  0  0
  2  3  1  0  0  0
  3  4  1  0  0  0
  4  5  1  0  0  0
  5  6  1  0  0  0
  5  7  1  0  0  0
  7  8  1  0  0  0
  7 39  1  0  0  0
  8  9  1  0  0  0
  8 27  1  0  0  0
  9 10  1  0  0  0
 10 11  1  0  0  0
 10 12  1  0  0  0
 12 13  1  0  0  0
 13 14  1  0  0  0
 13 26  1  0  0  0
 14 15  1  0  0  0
 15 16  1  0  0  0
 16 17  1  0  0  0
 17 18  1  0  0  0
 18 19  1  0  0  0
 18 25  1  0  0  0
 19 20  1  0  0  0
 20 21  1  0  0  0
 20 24  1  0  0  0
 21 22  1  0  0  0
 21 23  1  0  0  0
 23 51  1  0  0  0
 23 52  1  0  0  0
 24 53  1  0  0  0
 25 54  1  0  0  0
 26 55  1  0  0  0
 27 28  1  0  0  0
 28 29  2  0  0  0
 28 30  1  0  0  0
 30 31  1  0  0  0
 31 32  1  0  0  0
 31 36  1  0  0  0
 32 33  1  0  0  0
 33 34  2  0  0  0
 33 35  1  0  0  0
 35 56  1  0  0  0
 36 37  2  0  0  0
 36 38  1  0  0  0
 38 57  1  0  0  0
 39 40  1  0  0  0
 40 41  2  0  0  0
 40 42  1  0  0  0
 42 43  1  0  0  0
 43 44  1  0  0  0
 43 48  1  0  0  0
 44 45  1  0  0  0
 45 46  2  0  0  0
 45 47  1  0  0  0
 47 58  1  0  0  0
 48 49  2  0  0  0
 48 50  1  0  0  0
 50 59  1  0  0  0
M  END
>  <AUTHOR>
    GENERATED BY OPEN BABEL 2.4.1

>  <CHROM.1>
66.76298253,-156.49955004,61.83889338,60.82183327,-48.78084611,93.49186293
-146.99104539,83.74849489,-39.15308623,126.79911537,58.96461896,-178.26679474
-63.54573394,53.26743375,81.22802269,-76.74725310,-113.99904744,37.69523893
-66.56586034,170.96750929,57.72916521,166.64498832,17.10903841,-31.04463680
70.85809542,164.24723283,-70.46421905,-91.43596094,84.38660155,-4.82035258
-178.15538462,-5.97685702,-61.31219631,-175.67846488,-53.33764857,-105.98640520
-62.46562546,3.25449504,-175.95079059,3.72683222,-4.10432714,5.86385329,1.29315712
0.73330614,-0.90723050

>  <COMPND>
    UNNAMED

>  <MASTER>
        0    0    0    0    0    0    0    0  109    0  109    0

>  <Name>
FB1.pdb

>  <RI>
0

>  <Rbt.Current_Directory>
/cluster/tossine/FB1_39T3/p3/0_clust01

>  <Rbt.Executable>
rbdock/0.1.0

>  <Rbt.Library>
librxdock.so/0.1.0

>  <Rbt.Parameter_File>
/cluster/rxdock/data/scripts/dock.prm

>  <Rbt.Receptor>
rx_4.prm

>  <SCORE>
1.23604

>  <SCORE.INTER>
-12.7871

>  <SCORE.INTER.CONST>
1

>  <SCORE.INTER.POLAR>
-4.54394

>  <SCORE.INTER.REPUL>
0

>  <SCORE.INTER.ROT>
32

>  <SCORE.INTER.VDW>
-34.7377

>  <SCORE.INTER.norm>
-0.255741

>  <SCORE.INTRA>
14.0231

>  <SCORE.INTRA.DIHEDRAL>
8.82634

>  <SCORE.INTRA.DIHEDRAL.0>
47.3121

>  <SCORE.INTRA.POLAR>
1.47808

>  <SCORE.INTRA.POLAR.0>
-1.47808

>  <SCORE.INTRA.REPUL>
0.234178

>  <SCORE.INTRA.REPUL.0>
0

>  <SCORE.INTRA.VDW>
3.41358

>  <SCORE.INTRA.VDW.0>
-2.78316

>  <SCORE.INTRA.norm>
0.280462

>  <SCORE.RESTR>
0

>  <SCORE.RESTR.CAVITY>
0

>  <SCORE.RESTR.norm>
0

>  <SCORE.SYSTEM>
0

>  <SCORE.SYSTEM.CONST>
0

>  <SCORE.SYSTEM.DIHEDRAL>
0

>  <SCORE.SYSTEM.norm>
0

>  <SCORE.heavy>
50

>  <SCORE.norm>
0.0247208

$$$$
