FB1.pdb
  RxDock  10062023163D
librxdock.so/0.1.0
 59 58  0  0  0  0  0  0  0  0999 V2000
    7.4900   -4.1007    7.3524 C   0  0  0  0  0  0
    6.2813   -3.7572    8.2199 C   0  0  0  0  0  0
    5.7696   -2.3335    7.9455 C   0  0  0  0  0  0
    4.9975   -2.2017    6.6090 C   0  0  0  0  0  0
    4.7361   -0.7283    6.1385 C   0  0  0  0  0  0
    5.9039   -0.2970    5.2216 C   0  0  0  0  0  0
    3.3404   -0.5348    5.4088 C   0  0  0  0  0  0
    2.4670   -1.8529    5.1517 C   0  0  0  0  0  0
    0.9186   -2.0032    5.4807 C   0  0  0  0  0  0
    0.5212   -1.8259    7.0719 C   0  0  0  0  0  0
   -0.9968   -1.9323    7.2075 C   0  0  0  0  0  0
    1.2212   -2.8368    8.0883 C   0  0  0  0  0  0
    1.3890   -2.5589    9.6736 C   0  0  0  0  0  0
    1.6430   -3.7103   10.7061 C   0  0  0  0  0  0
    0.3831   -4.5106   11.2730 C   0  0  0  0  0  0
   -0.5851   -5.3880   10.3856 C   0  0  0  0  0  0
   -0.1050   -6.7691    9.8664 C   0  0  0  0  0  0
    0.5090   -7.7511   10.9378 C   0  0  0  0  0  0
   -0.4815   -8.3937   11.9168 C   0  0  0  0  0  0
   -1.6183   -9.2830   11.3381 C   0  0  0  0  0  0
   -1.3889  -10.8047   11.0992 C   0  0  0  0  0  0
   -0.8690  -11.6058   12.2847 C   0  0  0  0  0  0
   -2.5933  -11.4340   10.5250 N   0  0  0  0  0  0
   -2.6782   -9.2136   12.3258 O   0  0  0  0  0  0
    1.1979   -8.7931   10.2383 O   0  0  0  0  0  0
    2.5374   -1.7006    9.7788 O   0  0  0  0  0  0
    2.5611   -2.1315    3.7283 O   0  0  0  0  0  0
    3.6853   -2.7594    3.2957 C   0  0  0  0  0  0
    4.5270   -3.2905    3.9948 O   0  0  0  0  0  0
    3.6701   -2.7803    1.7921 C   0  0  0  0  0  0
    2.9354   -4.0060    1.2261 C   0  0  0  0  0  0
    2.8329   -3.9762   -0.3042 C   0  0  0  0  0  0
    1.7526   -4.9110   -0.7966 C   0  0  0  0  0  0
    0.6314   -4.5387   -1.1250 O   0  0  0  0  0  0
    2.1374   -6.1950   -0.8429 O   0  0  0  0  0  0
    3.7476   -5.2288    1.6744 C   0  0  0  0  0  0
    4.9456   -5.1841    1.9093 O   0  0  0  0  0  0
    3.0430   -6.3669    1.7404 O   0  0  0  0  0  0
    2.5454    0.5405    6.0503 O   0  0  0  0  0  0
    3.1413    1.7760    6.2416 C   0  0  0  0  0  0
    3.8267    2.3549    5.4090 O   0  0  0  0  0  0
    2.8480    2.3566    7.6313 C   0  0  0  0  0  0
    2.7514    1.3188    8.7924 C   0  0  0  0  0  0
    4.0445    0.6149    9.2429 C   0  0  0  0  0  0
    5.0886    1.5705    9.7439 C   0  0  0  0  0  0
    4.9905    2.2782   10.7369 O   0  0  0  0  0  0
    6.1946    1.5666    8.9843 O   0  0  0  0  0  0
    2.0550    1.8389   10.0561 C   0  0  0  0  0  0
    1.5850    1.1030   10.9013 O   0  0  0  0  0  0
    2.0896    3.1770   10.2277 O   0  0  0  0  0  0
   -2.3766  -12.3954   10.2656 H   0  0  0  0  0  0
   -2.8169  -10.9673    9.6431 H   0  0  0  0  0  0
   -3.4208   -9.7140   11.9263 H   0  0  0  0  0  0
    0.6913   -9.6189   10.3469 H   0  0  0  0  0  0
    3.3175   -2.2058    9.4949 H   0  0  0  0  0  0
    1.6088   -6.7674   -1.4314 H   0  0  0  0  0  0
    2.1789   -6.3426    1.2592 H   0  0  0  0  0  0
    6.8262    2.1882    9.4038 H   0  0  0  0  0  0
    1.7772    3.4960   11.1034 H   0  0  0  0  0  0
  1  2  1  0  0  0
  2  3  1  0  0  0
  3  4  1  0  0  0
  4  5  1  0  0  0
  5  6  1  0  0  0
  5  7  1  0  0  0
  7  8  1  0  0  0
  7 39  1  0  0  0
  8  9  1  0  0  0
  8 27  1  0  0  0
  9 10  1  0  0  0
 10 11  1  0  0  0
 10 12  1  0  0  0
 12 13  1  0  0  0
 13 14  1  0  0  0
 13 26  1  0  0  0
 14 15  1  0  0  0
 15 16  1  0  0  0
 16 17  1  0  0  0
 17 18  1  0  0  0
 18 19  1  0  0  0
 18 25  1  0  0  0
 19 20  1  0  0  0
 20 21  1  0  0  0
 20 24  1  0  0  0
 21 22  1  0  0  0
 21 23  1  0  0  0
 23 51  1  0  0  0
 23 52  1  0  0  0
 24 53  1  0  0  0
 25 54  1  0  0  0
 26 55  1  0  0  0
 27 28  1  0  0  0
 28 29  2  0  0  0
 28 30  1  0  0  0
 30 31  1  0  0  0
 31 32  1  0  0  0
 31 36  1  0  0  0
 32 33  1  0  0  0
 33 34  2  0  0  0
 33 35  1  0  0  0
 35 56  1  0  0  0
 36 37  2  0  0  0
 36 38  1  0  0  0
 38 57  1  0  0  0
 39 40  1  0  0  0
 40 41  2  0  0  0
 40 42  1  0  0  0
 42 43  1  0  0  0
 43 44  1  0  0  0
 43 48  1  0  0  0
 44 45  1  0  0  0
 45 46  2  0  0  0
 45 47  1  0  0  0
 47 58  1  0  0  0
 48 49  2  0  0  0
 48 50  1  0  0  0
 50 59  1  0  0  0
M  END
>  <AUTHOR>
    GENERATED BY OPEN BABEL 2.4.1

>  <CHROM.1>
74.74371868,-167.11148498,91.76320323,-4.75757726,132.13717676,51.99707752
-61.28155985,80.12540014,177.36830167,158.45734356,159.75207895,-84.25960364
-66.13624185,63.18606977,74.35385466,50.53097564,72.69487969,60.28183662
-109.68308467,88.14077314,52.94983732,175.51904388,172.59753834,11.87900478
-87.95489353,175.91626138,-161.47221423,-26.84267457,99.98054795,-159.32306278
16.50264737,43.79067598,35.01183518,69.96139297,60.38141102,160.19819878
64.47512661,-177.86846765,-170.32462942,2.34609911,-3.17719988,7.06126036
-0.13305987,1.12951816,1.09348551

>  <COMPND>
    UNNAMED

>  <MASTER>
        0    0    0    0    0    0    0    0  109    0  109    0

>  <Name>
FB1.pdb

>  <RI>
0

>  <Rbt.Current_Directory>
/cluster/tossine/FB1_39T3/p3/0_clust01

>  <Rbt.Executable>
rbdock/0.1.0

>  <Rbt.Library>
librxdock.so/0.1.0

>  <Rbt.Parameter_File>
/cluster/rxdock/data/scripts/dock.prm

>  <Rbt.Receptor>
rx_1.prm

>  <SCORE>
8.16237

>  <SCORE.INTER>
-0.321975

>  <SCORE.INTER.CONST>
1

>  <SCORE.INTER.POLAR>
-1.10782

>  <SCORE.INTER.REPUL>
0.25712

>  <SCORE.INTER.ROT>
32

>  <SCORE.INTER.VDW>
-35.241

>  <SCORE.INTER.norm>
-0.00643949

>  <SCORE.INTRA>
8.48435

>  <SCORE.INTRA.DIHEDRAL>
20.7866

>  <SCORE.INTRA.DIHEDRAL.0>
47.3121

>  <SCORE.INTRA.POLAR>
0.982823

>  <SCORE.INTRA.POLAR.0>
-1.47808

>  <SCORE.INTRA.REPUL>
0

>  <SCORE.INTRA.REPUL.0>
0

>  <SCORE.INTRA.VDW>
-5.25056

>  <SCORE.INTRA.VDW.0>
-2.78316

>  <SCORE.INTRA.norm>
0.169687

>  <SCORE.RESTR>
0

>  <SCORE.RESTR.CAVITY>
0

>  <SCORE.RESTR.norm>
0

>  <SCORE.SYSTEM>
0

>  <SCORE.SYSTEM.CONST>
0

>  <SCORE.SYSTEM.DIHEDRAL>
0

>  <SCORE.SYSTEM.norm>
0

>  <SCORE.heavy>
50

>  <SCORE.norm>
0.163247

$$$$
