FB1.pdb
  RxDock  10062023493D
librxdock.so/0.1.0
 59 58  0  0  0  0  0  0  0  0999 V2000
    4.3371    1.6176    6.2391 C   0  0  0  0  0  0
    3.6014    1.9861    4.9530 C   0  0  0  0  0  0
    4.5506    2.0200    3.7438 C   0  0  0  0  0  0
    5.1519    0.6365    3.3917 C   0  0  0  0  0  0
    5.0164    0.2202    1.8854 C   0  0  0  0  0  0
    5.8181    1.2275    1.0293 C   0  0  0  0  0  0
    5.4828   -1.2685    1.5955 C   0  0  0  0  0  0
    4.4381   -2.4351    1.9328 C   0  0  0  0  0  0
    4.6064   -3.9615    1.5207 C   0  0  0  0  0  0
    4.2456   -5.0501    2.7066 C   0  0  0  0  0  0
    2.7375   -5.2943    2.6984 C   0  0  0  0  0  0
    5.0140   -6.4464    2.6366 C   0  0  0  0  0  0
    5.5115   -7.2746    3.9348 C   0  0  0  0  0  0
    4.5678   -7.5820    5.1476 C   0  0  0  0  0  0
    4.7462   -6.7243    6.4825 C   0  0  0  0  0  0
    3.5480   -6.1689    7.3487 C   0  0  0  0  0  0
    2.3183   -7.0746    7.6226 C   0  0  0  0  0  0
    1.5053   -6.7805    8.9423 C   0  0  0  0  0  0
    2.3234   -6.6786   10.2357 C   0  0  0  0  0  0
    1.5873   -6.8759   11.5913 C   0  0  0  0  0  0
    0.8280   -8.2015   11.8938 C   0  0  0  0  0  0
   -0.5966   -8.3018   11.3667 C   0  0  0  0  0  0
    1.6268   -9.3709   11.4803 N   0  0  0  0  0  0
    2.6350   -6.8065   12.5920 O   0  0  0  0  0  0
    0.7921   -5.5530    8.7575 O   0  0  0  0  0  0
    5.8994   -8.5617    3.4256 O   0  0  0  0  0  0
    4.3157   -2.4647    3.3808 O   0  0  0  0  0  0
    3.2191   -1.8708    3.9194 C   0  0  0  0  0  0
    2.6423   -0.8935    3.4818 O   0  0  0  0  0  0
    2.7685   -2.6852    5.1005 C   0  0  0  0  0  0
    3.8084   -2.7096    6.2321 C   0  0  0  0  0  0
    4.7196   -1.4755    6.2209 C   0  0  0  0  0  0
    5.7721   -1.5652    7.3014 C   0  0  0  0  0  0
    6.2245   -2.6248    7.7213 O   0  0  0  0  0  0
    6.1697   -0.3694    7.7607 O   0  0  0  0  0  0
    3.0071   -2.7590    7.5404 C   0  0  0  0  0  0
    3.1532   -1.9488    8.4430 O   0  0  0  0  0  0
    2.1647   -3.7970    7.6341 O   0  0  0  0  0  0
    6.0361   -1.3991    0.2256 O   0  0  0  0  0  0
    5.2796   -2.0553   -0.7310 C   0  0  0  0  0  0
    4.1782   -2.5498   -0.5289 O   0  0  0  0  0  0
    5.9765   -2.0993   -2.0973 C   0  0  0  0  0  0
    5.9761   -0.7622   -2.9014 C   0  0  0  0  0  0
    6.1378   -0.8376   -4.4306 C   0  0  0  0  0  0
    7.2845   -1.7080   -4.8570 C   0  0  0  0  0  0
    8.3813   -1.3125   -5.2273 O   0  0  0  0  0  0
    6.9946   -3.0155   -4.7749 O   0  0  0  0  0  0
    4.7782    0.1524   -2.6172 C   0  0  0  0  0  0
    4.8994    1.3016   -2.2412 O   0  0  0  0  0  0
    3.5689   -0.3675   -2.9148 O   0  0  0  0  0  0
    2.6165   -9.1573   11.5963 H   0  0  0  0  0  0
    1.5038   -9.5115   10.4750 H   0  0  0  0  0  0
    2.8731   -5.8563   12.6343 H   0  0  0  0  0  0
    0.2086   -5.4213    9.5274 H   0  0  0  0  0  0
    5.2225   -8.8505    2.7908 H   0  0  0  0  0  0
    6.8881   -0.3948    8.4215 H   0  0  0  0  0  0
    1.6967   -3.8682    8.5028 H   0  0  0  0  0  0
    7.7805   -3.4993   -5.1061 H   0  0  0  0  0  0
    3.2680   -0.2274   -3.8401 H   0  0  0  0  0  0
  1  2  1  0  0  0
  2  3  1  0  0  0
  3  4  1  0  0  0
  4  5  1  0  0  0
  5  6  1  0  0  0
  5  7  1  0  0  0
  7  8  1  0  0  0
  7 39  1  0  0  0
  8  9  1  0  0  0
  8 27  1  0  0  0
  9 10  1  0  0  0
 10 11  1  0  0  0
 10 12  1  0  0  0
 12 13  1  0  0  0
 13 14  1  0  0  0
 13 26  1  0  0  0
 14 15  1  0  0  0
 15 16  1  0  0  0
 16 17  1  0  0  0
 17 18  1  0  0  0
 18 19  1  0  0  0
 18 25  1  0  0  0
 19 20  1  0  0  0
 20 21  1  0  0  0
 20 24  1  0  0  0
 21 22  1  0  0  0
 21 23  1  0  0  0
 23 51  1  0  0  0
 23 52  1  0  0  0
 24 53  1  0  0  0
 25 54  1  0  0  0
 26 55  1  0  0  0
 27 28  1  0  0  0
 28 29  2  0  0  0
 28 30  1  0  0  0
 30 31  1  0  0  0
 31 32  1  0  0  0
 31 36  1  0  0  0
 32 33  1  0  0  0
 33 34  2  0  0  0
 33 35  1  0  0  0
 35 56  1  0  0  0
 36 37  2  0  0  0
 36 38  1  0  0  0
 38 57  1  0  0  0
 39 40  1  0  0  0
 40 41  2  0  0  0
 40 42  1  0  0  0
 42 43  1  0  0  0
 43 44  1  0  0  0
 43 48  1  0  0  0
 44 45  1  0  0  0
 45 46  2  0  0  0
 45 47  1  0  0  0
 47 58  1  0  0  0
 48 49  2  0  0  0
 48 50  1  0  0  0
 50 59  1  0  0  0
M  END
>  <AUTHOR>
    GENERATED BY OPEN BABEL 2.4.1

>  <CHROM.1>
65.09536599,129.40145551,63.27268437,80.60882491,170.19981014,-106.89505590
135.74838543,101.09286488,84.36595161,143.83390203,49.60319292,-103.68589847
-43.59004261,138.54193983,42.32574266,153.22878504,-50.43611917,-159.50795394
173.46983781,58.71993659,-84.29431526,73.61732604,32.25743347,-32.84928826
64.09048452,25.92626714,-177.15399917,-125.19329623,29.23912204,-176.46335564
175.71427891,-0.47240598,-75.03375840,-156.55032161,-48.90007549,123.83163857
-101.66138230,177.65316244,-87.63645050,4.18815087,-3.18591417,3.96459966
2.99635037,-1.30158135,-2.85773005

>  <COMPND>
    UNNAMED

>  <MASTER>
        0    0    0    0    0    0    0    0  109    0  109    0

>  <Name>
FB1.pdb

>  <RI>
0

>  <Rbt.Current_Directory>
/cluster/tossine/FB1_39T3/p3/0_clust01

>  <Rbt.Executable>
rbdock/0.1.0

>  <Rbt.Library>
librxdock.so/0.1.0

>  <Rbt.Parameter_File>
/cluster/rxdock/data/scripts/dock.prm

>  <Rbt.Receptor>
rx_2.prm

>  <SCORE>
66.0904

>  <SCORE.INTER>
33.0206

>  <SCORE.INTER.CONST>
1

>  <SCORE.INTER.POLAR>
-3.4

>  <SCORE.INTER.REPUL>
1.42466

>  <SCORE.INTER.ROT>
32

>  <SCORE.INTER.VDW>
0.0573294

>  <SCORE.INTER.norm>
0.660413

>  <SCORE.INTRA>
32.4342

>  <SCORE.INTRA.DIHEDRAL>
48.4742

>  <SCORE.INTRA.DIHEDRAL.0>
47.3121

>  <SCORE.INTRA.POLAR>
1.20584

>  <SCORE.INTRA.POLAR.0>
-1.47808

>  <SCORE.INTRA.REPUL>
0

>  <SCORE.INTRA.REPUL.0>
0

>  <SCORE.INTRA.VDW>
4.09719

>  <SCORE.INTRA.VDW.0>
-2.78316

>  <SCORE.INTRA.norm>
0.648683

>  <SCORE.RESTR>
0.635609

>  <SCORE.RESTR.CAVITY>
0.635609

>  <SCORE.RESTR.norm>
0.0127122

>  <SCORE.SYSTEM>
0

>  <SCORE.SYSTEM.CONST>
0

>  <SCORE.SYSTEM.DIHEDRAL>
0

>  <SCORE.SYSTEM.norm>
0

>  <SCORE.heavy>
50

>  <SCORE.norm>
1.32181

$$$$
