FB1.pdb
  RxDock  10062023083D
librxdock.so/0.1.0
 59 58  0  0  0  0  0  0  0  0999 V2000
   10.3762   -3.2630    6.3413 C   0  0  0  0  0  0
    9.1540   -2.9772    7.2106 C   0  0  0  0  0  0
    7.8539   -3.4467    6.5372 C   0  0  0  0  0  0
    7.7617   -4.9848    6.3774 C   0  0  0  0  0  0
    6.4053   -5.5088    5.7892 C   0  0  0  0  0  0
    6.6256   -6.9478    5.2684 C   0  0  0  0  0  0
    5.2042   -5.4578    6.8250 C   0  0  0  0  0  0
    5.3400   -6.3642    8.1388 C   0  0  0  0  0  0
    6.6716   -6.5523    8.9871 C   0  0  0  0  0  0
    6.6581   -7.8245   10.0372 C   0  0  0  0  0  0
    5.6037   -7.5569   11.1099 C   0  0  0  0  0  0
    6.4140   -9.2640    9.3946 C   0  0  0  0  0  0
    6.4976  -10.6528   10.2209 C   0  0  0  0  0  0
    5.9431  -10.7972   11.6796 C   0  0  0  0  0  0
    5.2461  -12.1731   12.0921 C   0  0  0  0  0  0
    3.6835  -12.3916   12.1628 C   0  0  0  0  0  0
    2.8144  -12.1081   10.9091 C   0  0  0  0  0  0
    2.2174  -10.6536   10.7786 C   0  0  0  0  0  0
    1.1451  -10.2648   11.8041 C   0  0  0  0  0  0
   -0.1643  -11.1020   11.8551 C   0  0  0  0  0  0
   -0.3993  -12.1347   12.9969 C   0  0  0  0  0  0
   -1.3357  -13.2926   12.6810 C   0  0  0  0  0  0
    0.8841  -12.6258   13.5337 N   0  0  0  0  0  0
   -1.2216  -10.1215   12.0122 O   0  0  0  0  0  0
    3.2997   -9.7215   10.8766 O   0  0  0  0  0  0
    5.7443  -11.5944    9.4382 O   0  0  0  0  0  0
    4.3758   -5.8430    9.0934 O   0  0  0  0  0  0
    3.1266   -6.3757    9.0617 C   0  0  0  0  0  0
    2.7408   -7.2614    8.3229 O   0  0  0  0  0  0
    2.3172   -5.7570   10.1679 C   0  0  0  0  0  0
    1.0710   -5.0228    9.6480 C   0  0  0  0  0  0
   -0.0528   -5.9850    9.2426 C   0  0  0  0  0  0
   -1.1206   -5.2715    8.4462 C   0  0  0  0  0  0
   -1.0478   -4.0921    8.1184 O   0  0  0  0  0  0
   -2.1620   -6.0541    8.1274 O   0  0  0  0  0  0
    0.6016   -4.1218   10.7986 C   0  0  0  0  0  0
   -0.4215   -4.3291   11.4332 O   0  0  0  0  0  0
    1.3826   -3.0556   11.0201 O   0  0  0  0  0  0
    4.8387   -4.0581    7.1525 O   0  0  0  0  0  0
    4.2475   -3.2837    6.1681 C   0  0  0  0  0  0
    4.2984   -3.5239    4.9689 O   0  0  0  0  0  0
    3.5070   -2.0704    6.7459 C   0  0  0  0  0  0
    4.4034   -0.8583    7.1481 C   0  0  0  0  0  0
    5.1720   -0.9375    8.4798 C   0  0  0  0  0  0
    5.4708    0.4123    9.0658 C   0  0  0  0  0  0
    6.5141    1.0357    8.9262 O   0  0  0  0  0  0
    4.4413    0.9047    9.7714 O   0  0  0  0  0  0
    5.4053   -0.4214    6.0722 C   0  0  0  0  0  0
    6.4996   -0.9335    5.9421 O   0  0  0  0  0  0
    4.9527    0.5043    5.2007 O   0  0  0  0  0  0
    0.7006  -13.3408   14.2363 H   0  0  0  0  0  0
    1.3372  -11.8647   14.0445 H   0  0  0  0  0  0
   -1.0152   -9.6694   12.8573 H   0  0  0  0  0  0
    3.7615   -9.7003   10.0182 H   0  0  0  0  0  0
    4.8196  -11.2959    9.4168 H   0  0  0  0  0  0
   -2.8351   -5.6391    7.5546 H   0  0  0  0  0  0
    1.1259   -2.5159   11.8085 H   0  0  0  0  0  0
    3.7403    0.2193    9.7620 H   0  0  0  0  0  0
    5.5922    0.7733    4.5044 H   0  0  0  0  0  0
  1  2  1  0  0  0
  2  3  1  0  0  0
  3  4  1  0  0  0
  4  5  1  0  0  0
  5  6  1  0  0  0
  5  7  1  0  0  0
  7  8  1  0  0  0
  7 39  1  0  0  0
  8  9  1  0  0  0
  8 27  1  0  0  0
  9 10  1  0  0  0
 10 11  1  0  0  0
 10 12  1  0  0  0
 12 13  1  0  0  0
 13 14  1  0  0  0
 13 26  1  0  0  0
 14 15  1  0  0  0
 15 16  1  0  0  0
 16 17  1  0  0  0
 17 18  1  0  0  0
 18 19  1  0  0  0
 18 25  1  0  0  0
 19 20  1  0  0  0
 20 21  1  0  0  0
 20 24  1  0  0  0
 21 22  1  0  0  0
 21 23  1  0  0  0
 23 51  1  0  0  0
 23 52  1  0  0  0
 24 53  1  0  0  0
 25 54  1  0  0  0
 26 55  1  0  0  0
 27 28  1  0  0  0
 28 29  2  0  0  0
 28 30  1  0  0  0
 30 31  1  0  0  0
 31 32  1  0  0  0
 31 36  1  0  0  0
 32 33  1  0  0  0
 33 34  2  0  0  0
 33 35  1  0  0  0
 35 56  1  0  0  0
 36 37  2  0  0  0
 36 38  1  0  0  0
 38 57  1  0  0  0
 39 40  1  0  0  0
 40 41  2  0  0  0
 40 42  1  0  0  0
 42 43  1  0  0  0
 43 44  1  0  0  0
 43 48  1  0  0  0
 44 45  1  0  0  0
 45 46  2  0  0  0
 45 47  1  0  0  0
 47 58  1  0  0  0
 48 49  2  0  0  0
 48 50  1  0  0  0
 50 59  1  0  0  0
M  END
>  <AUTHOR>
    GENERATED BY OPEN BABEL 2.4.1

>  <CHROM.1>
66.13645543,175.77542984,161.83331498,-62.88439568,41.01082146,68.94878824
-164.49972688,89.85881004,-65.31144470,174.15942396,39.62018837,143.15726132
-63.95246185,-100.89221753,56.31695668,-91.68016454,-67.99637327,-60.35424853
78.34067250,104.24955076,-154.22164656,-60.49723732,-176.48157448,1.09531893
120.50399837,76.05552158,-166.74385823,-109.74144944,3.41080793,-175.50424380
-175.08162636,-19.36288641,78.97939219,-78.40591124,-153.89905744,-85.22107747
-95.60436313,2.56052063,-179.16931468,3.74545245,-6.10820235,9.09358188,-1.17640522
-0.28704149,2.79880948

>  <COMPND>
    UNNAMED

>  <MASTER>
        0    0    0    0    0    0    0    0  109    0  109    0

>  <Name>
FB1.pdb

>  <RI>
0

>  <Rbt.Current_Directory>
/cluster/tossine/FB1_39T3/p3/0_clust01

>  <Rbt.Executable>
rbdock/0.1.0

>  <Rbt.Library>
librxdock.so/0.1.0

>  <Rbt.Parameter_File>
/cluster/rxdock/data/scripts/dock.prm

>  <Rbt.Receptor>
rx_1.prm

>  <SCORE>
-4.58738

>  <SCORE.INTER>
-7.95463

>  <SCORE.INTER.CONST>
1

>  <SCORE.INTER.POLAR>
-2.58154

>  <SCORE.INTER.REPUL>
0.0245495

>  <SCORE.INTER.ROT>
32

>  <SCORE.INTER.VDW>
-36.7001

>  <SCORE.INTER.norm>
-0.159093

>  <SCORE.INTRA>
3.31273

>  <SCORE.INTRA.DIHEDRAL>
3.33907

>  <SCORE.INTRA.DIHEDRAL.0>
47.3121

>  <SCORE.INTRA.POLAR>
1.47808

>  <SCORE.INTRA.POLAR.0>
-1.47808

>  <SCORE.INTRA.REPUL>
0

>  <SCORE.INTRA.REPUL.0>
0

>  <SCORE.INTRA.VDW>
-3.38226

>  <SCORE.INTRA.VDW.0>
-2.78316

>  <SCORE.INTRA.norm>
0.0662547

>  <SCORE.RESTR>
0.0545251

>  <SCORE.RESTR.CAVITY>
0.0545251

>  <SCORE.RESTR.norm>
0.0010905

>  <SCORE.SYSTEM>
0

>  <SCORE.SYSTEM.CONST>
0

>  <SCORE.SYSTEM.DIHEDRAL>
0

>  <SCORE.SYSTEM.norm>
0

>  <SCORE.heavy>
50

>  <SCORE.norm>
-0.0917475

$$$$
