FB1.pdb
  RxDock  10062023093D
librxdock.so/0.1.0
 59 58  0  0  0  0  0  0  0  0999 V2000
   -2.6210   -0.9892    7.9837 C   0  0  0  0  0  0
   -2.8610   -2.4533    7.6229 C   0  0  0  0  0  0
   -1.7056   -3.3524    8.0929 C   0  0  0  0  0  0
   -0.3795   -3.1020    7.3322 C   0  0  0  0  0  0
    0.8223   -4.0032    7.7835 C   0  0  0  0  0  0
    0.4372   -5.4815    7.5445 C   0  0  0  0  0  0
    2.1878   -3.6480    7.0574 C   0  0  0  0  0  0
    2.7790   -4.7425    6.0480 C   0  0  0  0  0  0
    3.0995   -4.4911    4.5110 C   0  0  0  0  0  0
    1.7820   -4.4535    3.5188 C   0  0  0  0  0  0
    1.2719   -3.0153    3.4441 C   0  0  0  0  0  0
    1.9961   -5.0224    2.0439 C   0  0  0  0  0  0
    2.3892   -4.1093    0.7671 C   0  0  0  0  0  0
    3.8618   -3.9834    0.2457 C   0  0  0  0  0  0
    4.1487   -3.0073   -0.9847 C   0  0  0  0  0  0
    5.5363   -2.3032   -1.2557 C   0  0  0  0  0  0
    6.6908   -3.1126   -1.9034 C   0  0  0  0  0  0
    6.8008   -3.0498   -3.4760 C   0  0  0  0  0  0
    6.4123   -1.7188   -4.1317 C   0  0  0  0  0  0
    6.6007   -1.5710   -5.6682 C   0  0  0  0  0  0
    5.8293   -2.4987   -6.6529 C   0  0  0  0  0  0
    5.9170   -2.1411   -8.1300 C   0  0  0  0  0  0
    6.1856   -3.9129   -6.4307 N   0  0  0  0  0  0
    6.1319   -0.2317   -5.9689 O   0  0  0  0  0  0
    8.1517   -3.3573   -3.8369 O   0  0  0  0  0  0
    1.6493   -4.6704   -0.3303 O   0  0  0  0  0  0
    4.0462   -5.1745    6.6137 O   0  0  0  0  0  0
    4.0092   -6.2141    7.4873 C   0  0  0  0  0  0
    3.0758   -6.9741    7.6620 O   0  0  0  0  0  0
    5.3593   -6.3371    8.1381 C   0  0  0  0  0  0
    5.2682   -6.7777    9.6079 C   0  0  0  0  0  0
    6.6459   -7.0340   10.2320 C   0  0  0  0  0  0
    7.4727   -7.9573    9.3675 C   0  0  0  0  0  0
    7.5149   -9.1732    9.5208 O   0  0  0  0  0  0
    8.1600   -7.3187    8.4089 O   0  0  0  0  0  0
    4.5608   -5.6341   10.3480 C   0  0  0  0  0  0
    3.5201   -5.7851   10.9697 O   0  0  0  0  0  0
    5.1536   -4.4395   10.2156 O   0  0  0  0  0  0
    2.1322   -2.2995    6.4423 O   0  0  0  0  0  0
    3.3122   -1.7313    5.9920 C   0  0  0  0  0  0
    3.7448   -1.8364    4.8517 O   0  0  0  0  0  0
    4.0356   -0.9405    7.0899 C   0  0  0  0  0  0
    4.2138    0.5858    6.8197 C   0  0  0  0  0  0
    3.9864    1.0980    5.3857 C   0  0  0  0  0  0
    3.9898    2.5964    5.2905 C   0  0  0  0  0  0
    4.9559    3.2912    5.0064 O   0  0  0  0  0  0
    2.7832    3.1290    5.5370 O   0  0  0  0  0  0
    3.4135    1.4973    7.7584 C   0  0  0  0  0  0
    2.1999    1.5581    7.7434 O   0  0  0  0  0  0
    4.1404    2.1562    8.6850 O   0  0  0  0  0  0
    7.1998   -3.9978   -6.3795 H   0  0  0  0  0  0
    5.9177   -4.4511   -7.2578 H   0  0  0  0  0  0
    6.7433    0.3591   -5.4806 H   0  0  0  0  0  0
    8.7330   -2.6797   -3.4452 H   0  0  0  0  0  0
    1.5754   -5.6284   -0.1846 H   0  0  0  0  0  0
    8.2695   -6.3580    8.5446 H   0  0  0  0  0  0
    4.6334   -3.6810   10.5802 H   0  0  0  0  0  0
    2.1772    2.3802    5.7197 H   0  0  0  0  0  0
    5.0977    1.9340    8.7033 H   0  0  0  0  0  0
  1  2  1  0  0  0
  2  3  1  0  0  0
  3  4  1  0  0  0
  4  5  1  0  0  0
  5  6  1  0  0  0
  5  7  1  0  0  0
  7  8  1  0  0  0
  7 39  1  0  0  0
  8  9  1  0  0  0
  8 27  1  0  0  0
  9 10  1  0  0  0
 10 11  1  0  0  0
 10 12  1  0  0  0
 12 13  1  0  0  0
 13 14  1  0  0  0
 13 26  1  0  0  0
 14 15  1  0  0  0
 15 16  1  0  0  0
 16 17  1  0  0  0
 17 18  1  0  0  0
 18 19  1  0  0  0
 18 25  1  0  0  0
 19 20  1  0  0  0
 20 21  1  0  0  0
 20 24  1  0  0  0
 21 22  1  0  0  0
 21 23  1  0  0  0
 23 51  1  0  0  0
 23 52  1  0  0  0
 24 53  1  0  0  0
 25 54  1  0  0  0
 26 55  1  0  0  0
 27 28  1  0  0  0
 28 29  2  0  0  0
 28 30  1  0  0  0
 30 31  1  0  0  0
 31 32  1  0  0  0
 31 36  1  0  0  0
 32 33  1  0  0  0
 33 34  2  0  0  0
 33 35  1  0  0  0
 35 56  1  0  0  0
 36 37  2  0  0  0
 36 38  1  0  0  0
 38 57  1  0  0  0
 39 40  1  0  0  0
 40 41  2  0  0  0
 40 42  1  0  0  0
 42 43  1  0  0  0
 43 44  1  0  0  0
 43 48  1  0  0  0
 44 45  1  0  0  0
 45 46  2  0  0  0
 45 47  1  0  0  0
 47 58  1  0  0  0
 48 49  2  0  0  0
 48 50  1  0  0  0
 50 59  1  0  0  0
M  END
>  <AUTHOR>
    GENERATED BY OPEN BABEL 2.4.1

>  <CHROM.1>
-67.85424416,-179.91377715,60.47026720,-112.53236587,122.38124788,167.91697868
-76.30588693,88.70209660,89.61087246,-93.56419016,98.58907797,-177.48417845
-32.78701544,153.53218486,78.71426683,92.18479811,34.50408358,175.65451028
-61.76483880,61.47192899,171.05331502,63.14006169,-47.89419743,14.34913518
144.64788394,174.46659437,-50.93523974,121.63584891,-93.53054034,17.94580605
171.64276370,91.92261422,-117.89477694,-14.85503328,171.63812882,-67.76963753
94.65508549,-0.30132533,-4.20079741,3.84027703,-3.05804150,4.17650817,1.96530779
-1.04560593,2.05140474

>  <COMPND>
    UNNAMED

>  <MASTER>
        0    0    0    0    0    0    0    0  109    0  109    0

>  <Name>
FB1.pdb

>  <RI>
0

>  <Rbt.Current_Directory>
/cluster/tossine/FB1_39T3/p3/0_clust01

>  <Rbt.Executable>
rbdock/0.1.0

>  <Rbt.Library>
librxdock.so/0.1.0

>  <Rbt.Parameter_File>
/cluster/rxdock/data/scripts/dock.prm

>  <Rbt.Receptor>
rx_1.prm

>  <SCORE>
19.7083

>  <SCORE.INTER>
-11.0047

>  <SCORE.INTER.CONST>
1

>  <SCORE.INTER.POLAR>
-4.17662

>  <SCORE.INTER.REPUL>
0.454117

>  <SCORE.INTER.ROT>
32

>  <SCORE.INTER.VDW>
-36.4748

>  <SCORE.INTER.norm>
-0.220093

>  <SCORE.INTRA>
30.6751

>  <SCORE.INTRA.DIHEDRAL>
39.2116

>  <SCORE.INTRA.DIHEDRAL.0>
47.3121

>  <SCORE.INTRA.POLAR>
1.47808

>  <SCORE.INTRA.POLAR.0>
-1.47808

>  <SCORE.INTRA.REPUL>
0

>  <SCORE.INTRA.REPUL.0>
0

>  <SCORE.INTRA.VDW>
6.04386

>  <SCORE.INTRA.VDW.0>
-2.78316

>  <SCORE.INTRA.norm>
0.613502

>  <SCORE.RESTR>
0.0378945

>  <SCORE.RESTR.CAVITY>
0.0378945

>  <SCORE.RESTR.norm>
0.00075789

>  <SCORE.SYSTEM>
0

>  <SCORE.SYSTEM.CONST>
0

>  <SCORE.SYSTEM.DIHEDRAL>
0

>  <SCORE.SYSTEM.norm>
0

>  <SCORE.heavy>
50

>  <SCORE.norm>
0.394166

$$$$
