FB1.pdb
  RxDock  10062023153D
librxdock.so/0.1.0
 59 58  0  0  0  0  0  0  0  0999 V2000
    5.2934   -7.7469   14.8726 C   0  0  0  0  0  0
    5.0162   -9.0068   14.0557 C   0  0  0  0  0  0
    3.5087   -9.2399   13.8626 C   0  0  0  0  0  0
    2.7968   -8.0873   13.1113 C   0  0  0  0  0  0
    3.2029   -7.9295   11.6044 C   0  0  0  0  0  0
    2.8737   -9.2508   10.8720 C   0  0  0  0  0  0
    2.5094   -6.6954   10.8876 C   0  0  0  0  0  0
    3.2320   -6.1153    9.5809 C   0  0  0  0  0  0
    3.5231   -6.9409    8.2536 C   0  0  0  0  0  0
    4.5045   -6.1876    7.1624 C   0  0  0  0  0  0
    5.9575   -6.4601    7.5477 C   0  0  0  0  0  0
    4.2765   -6.5701    5.6305 C   0  0  0  0  0  0
    5.2677   -6.1324    4.4286 C   0  0  0  0  0  0
    4.9721   -6.4763    2.9284 C   0  0  0  0  0  0
    4.4922   -5.2996    1.9620 C   0  0  0  0  0  0
    5.4546   -4.4770    1.0176 C   0  0  0  0  0  0
    5.0300   -3.0643    0.5366 C   0  0  0  0  0  0
    5.8305   -2.4641   -0.6832 C   0  0  0  0  0  0
    5.5422   -3.0841   -2.0562 C   0  0  0  0  0  0
    5.2765   -2.1300   -3.2550 C   0  0  0  0  0  0
    6.3816   -1.1482   -3.7450 C   0  0  0  0  0  0
    7.4303   -1.7237   -4.6865 C   0  0  0  0  0  0
    5.7837    0.0775   -4.3078 N   0  0  0  0  0  0
    5.0325   -3.0124   -4.3801 O   0  0  0  0  0  0
    5.5489   -1.0619   -0.7494 O   0  0  0  0  0  0
    5.3042   -4.6963    4.4841 O   0  0  0  0  0  0
    2.4253   -4.9912    9.1357 O   0  0  0  0  0  0
    3.0762   -3.8252    8.8865 C   0  0  0  0  0  0
    4.2346   -3.5753    9.1602 O   0  0  0  0  0  0
    2.1533   -2.9196    8.1188 C   0  0  0  0  0  0
    0.9099   -2.5194    8.9290 C   0  0  0  0  0  0
    1.2591   -1.6921   10.1728 C   0  0  0  0  0  0
    2.0884   -0.4828    9.8080 C   0  0  0  0  0  0
    1.6089    0.6163    9.5518 O   0  0  0  0  0  0
    3.4076   -0.7246    9.7920 O   0  0  0  0  0  0
    0.0342   -1.6929    7.9773 C   0  0  0  0  0  0
   -0.6914   -0.7862    8.3566 O   0  0  0  0  0  0
    0.0923   -2.0801    6.6956 O   0  0  0  0  0  0
    1.0671   -6.9522   10.6556 O   0  0  0  0  0  0
    0.1426   -6.1362   11.2861 C   0  0  0  0  0  0
   -0.1563   -5.0079   10.9171 O   0  0  0  0  0  0
   -0.4815   -6.8044   12.5183 C   0  0  0  0  0  0
   -1.6392   -7.8099   12.2301 C   0  0  0  0  0  0
   -1.2997   -9.1056   11.4709 C   0  0  0  0  0  0
   -1.2879   -8.9261    9.9803 C   0  0  0  0  0  0
   -0.9293   -7.9190    9.3856 O   0  0  0  0  0  0
   -1.7061  -10.0217    9.3282 O   0  0  0  0  0  0
   -2.4588   -8.2092   13.4635 C   0  0  0  0  0  0
   -2.5889   -7.4868   14.4319 O   0  0  0  0  0  0
   -3.1221   -9.3803   13.3641 O   0  0  0  0  0  0
    6.3503    0.3956   -5.0928 H   0  0  0  0  0  0
    5.8540    0.8241   -3.6127 H   0  0  0  0  0  0
    4.6067   -2.4412   -5.0537 H   0  0  0  0  0  0
    5.9846   -0.6282    0.0074 H   0  0  0  0  0  0
    5.5640   -4.4367    5.3839 H   0  0  0  0  0  0
    3.6756   -1.5965   10.1406 H   0  0  0  0  0  0
   -0.4388   -1.5227    6.0743 H   0  0  0  0  0  0
   -1.5311   -9.8663    8.3761 H   0  0  0  0  0  0
   -3.6262   -9.6463   14.1649 H   0  0  0  0  0  0
  1  2  1  0  0  0
  2  3  1  0  0  0
  3  4  1  0  0  0
  4  5  1  0  0  0
  5  6  1  0  0  0
  5  7  1  0  0  0
  7  8  1  0  0  0
  7 39  1  0  0  0
  8  9  1  0  0  0
  8 27  1  0  0  0
  9 10  1  0  0  0
 10 11  1  0  0  0
 10 12  1  0  0  0
 12 13  1  0  0  0
 13 14  1  0  0  0
 13 26  1  0  0  0
 14 15  1  0  0  0
 15 16  1  0  0  0
 16 17  1  0  0  0
 17 18  1  0  0  0
 18 19  1  0  0  0
 18 25  1  0  0  0
 19 20  1  0  0  0
 20 21  1  0  0  0
 20 24  1  0  0  0
 21 22  1  0  0  0
 21 23  1  0  0  0
 23 51  1  0  0  0
 23 52  1  0  0  0
 24 53  1  0  0  0
 25 54  1  0  0  0
 26 55  1  0  0  0
 27 28  1  0  0  0
 28 29  2  0  0  0
 28 30  1  0  0  0
 30 31  1  0  0  0
 31 32  1  0  0  0
 31 36  1  0  0  0
 32 33  1  0  0  0
 33 34  2  0  0  0
 33 35  1  0  0  0
 35 56  1  0  0  0
 36 37  2  0  0  0
 36 38  1  0  0  0
 38 57  1  0  0  0
 39 40  1  0  0  0
 40 41  2  0  0  0
 40 42  1  0  0  0
 42 43  1  0  0  0
 43 44  1  0  0  0
 43 48  1  0  0  0
 44 45  1  0  0  0
 45 46  2  0  0  0
 45 47  1  0  0  0
 47 58  1  0  0  0
 48 49  2  0  0  0
 48 50  1  0  0  0
 50 59  1  0  0  0
M  END
>  <AUTHOR>
    GENERATED BY OPEN BABEL 2.4.1

>  <CHROM.1>
60.55945067,67.62942835,59.20508828,157.64983060,59.73137960,117.01621701
-169.94888514,129.98398781,84.76471448,-170.06790286,-177.23145806,106.45936384
54.68253677,96.01214337,-157.31827863,-164.29043617,72.78889425,132.45063660
70.58471692,62.72273580,82.62026688,163.47124274,-144.30206965,-10.13334653
64.11129151,63.81527758,54.40421122,-148.56185366,91.87786164,-8.65129115
-177.31440389,78.38294336,-80.76600330,66.02484217,-84.13746655,27.58044914
34.47995177,-171.19739812,178.35355423,2.59589095,-5.03172407,7.24351293
-2.25601145,1.02341110,-0.60665688

>  <COMPND>
    UNNAMED

>  <MASTER>
        0    0    0    0    0    0    0    0  109    0  109    0

>  <Name>
FB1.pdb

>  <RI>
0

>  <Rbt.Current_Directory>
/cluster/tossine/FB1_39T3/p3/0_clust01

>  <Rbt.Executable>
rbdock/0.1.0

>  <Rbt.Library>
librxdock.so/0.1.0

>  <Rbt.Parameter_File>
/cluster/rxdock/data/scripts/dock.prm

>  <Rbt.Receptor>
rx_1.prm

>  <SCORE>
24.9841

>  <SCORE.INTER>
1.22665

>  <SCORE.INTER.CONST>
1

>  <SCORE.INTER.POLAR>
-1.60063

>  <SCORE.INTER.REPUL>
0.0390068

>  <SCORE.INTER.ROT>
32

>  <SCORE.INTER.VDW>
-30.9262

>  <SCORE.INTER.norm>
0.024533

>  <SCORE.INTRA>
23.7487

>  <SCORE.INTRA.DIHEDRAL>
32.7713

>  <SCORE.INTRA.DIHEDRAL.0>
47.3121

>  <SCORE.INTRA.POLAR>
1.47808

>  <SCORE.INTRA.POLAR.0>
-1.47808

>  <SCORE.INTRA.REPUL>
0

>  <SCORE.INTRA.REPUL.0>
0

>  <SCORE.INTRA.VDW>
2.33762

>  <SCORE.INTRA.VDW.0>
-2.78316

>  <SCORE.INTRA.norm>
0.474974

>  <SCORE.RESTR>
0.0087225

>  <SCORE.RESTR.CAVITY>
0.0087225

>  <SCORE.RESTR.norm>
0.00017445

>  <SCORE.SYSTEM>
0

>  <SCORE.SYSTEM.CONST>
0

>  <SCORE.SYSTEM.DIHEDRAL>
0

>  <SCORE.SYSTEM.norm>
0

>  <SCORE.heavy>
50

>  <SCORE.norm>
0.499682

$$$$
