FB1.pdb
  RxDock  10062022303D
librxdock.so/0.1.0
 59 58  0  0  0  0  0  0  0  0999 V2000
    2.0015   -4.1480    2.9719 C   0  0  0  0  0  0
    2.8142   -4.3033    4.2551 C   0  0  0  0  0  0
    1.9777   -4.9211    5.3877 C   0  0  0  0  0  0
    2.7496   -5.0532    6.7242 C   0  0  0  0  0  0
    1.9092   -5.6226    7.9201 C   0  0  0  0  0  0
    1.9279   -7.1663    7.8351 C   0  0  0  0  0  0
    2.4126   -5.1263    9.3407 C   0  0  0  0  0  0
    1.7029   -5.7663   10.6264 C   0  0  0  0  0  0
    2.4625   -6.3417   11.8993 C   0  0  0  0  0  0
    3.0867   -7.8575   11.7154 C   0  0  0  0  0  0
    1.9424   -8.8179   11.3956 C   0  0  0  0  0  0
    4.2388   -8.0158   10.6234 C   0  0  0  0  0  0
    5.1374   -9.3488   10.4386 C   0  0  0  0  0  0
    4.5066  -10.7532   10.1451 C   0  0  0  0  0  0
    4.1218  -11.6843   11.3837 C   0  0  0  0  0  0
    3.9306  -11.1626   12.8621 C   0  0  0  0  0  0
    3.1770  -12.0443   13.8927 C   0  0  0  0  0  0
    1.6601  -12.3496   13.5846 C   0  0  0  0  0  0
    1.3713  -13.1187   12.2894 C   0  0  0  0  0  0
    1.2148  -14.6639   12.3687 C   0  0  0  0  0  0
   -0.1773  -15.3051   12.6449 C   0  0  0  0  0  0
   -0.1719  -16.7164   13.2155 C   0  0  0  0  0  0
   -1.0158  -14.4087   13.4633 N   0  0  0  0  0  0
    1.5927  -15.1397   11.0517 O   0  0  0  0  0  0
    1.1272  -13.0950   14.6846 O   0  0  0  0  0  0
    5.9804   -9.0724    9.3075 O   0  0  0  0  0  0
    0.8297   -4.7361   11.1636 O   0  0  0  0  0  0
   -0.1905   -4.3171   10.3706 C   0  0  0  0  0  0
   -0.8114   -4.9985    9.5771 O   0  0  0  0  0  0
   -0.4986   -2.8846   10.7086 C   0  0  0  0  0  0
    0.3410   -1.8911    9.8897 C   0  0  0  0  0  0
    0.3155   -2.1976    8.3868 C   0  0  0  0  0  0
    1.1054   -1.1717    7.6078 C   0  0  0  0  0  0
    1.8736   -0.3695    8.1274 O   0  0  0  0  0  0
    0.8879   -1.2215    6.2852 O   0  0  0  0  0  0
   -0.2671   -0.5068   10.1539 C   0  0  0  0  0  0
    0.3214    0.3756   10.7600 O   0  0  0  0  0  0
   -1.5218   -0.3594    9.7065 O   0  0  0  0  0  0
    3.8915   -5.1872    9.4360 O   0  0  0  0  0  0
    4.6253   -4.0950    9.0042 C   0  0  0  0  0  0
    5.8111   -4.1281    8.7023 O   0  0  0  0  0  0
    3.7832   -2.8139    8.9410 C   0  0  0  0  0  0
    4.4670   -1.5866    8.2623 C   0  0  0  0  0  0
    5.5457   -0.8284    9.0573 C   0  0  0  0  0  0
    5.3246    0.6566    9.0772 C   0  0  0  0  0  0
    5.0128    1.3185   10.0576 O   0  0  0  0  0  0
    5.5258    1.2215    7.8769 O   0  0  0  0  0  0
    5.0445   -1.8678    6.8697 C   0  0  0  0  0  0
    5.1843   -2.9910    6.4273 O   0  0  0  0  0  0
    5.2924   -0.7774    6.1142 O   0  0  0  0  0  0
   -0.5586  -14.2500   14.3601 H   0  0  0  0  0  0
   -1.8855  -14.8946   13.6933 H   0  0  0  0  0  0
    0.9308  -14.7431   10.4468 H   0  0  0  0  0  0
    1.7202  -13.8495   14.8565 H   0  0  0  0  0  0
    6.6131   -8.3813    9.5658 H   0  0  0  0  0  0
    0.2876   -1.9321    5.9882 H   0  0  0  0  0  0
   -1.8941   -1.1592    9.2589 H   0  0  0  0  0  0
    5.2839    2.1674    7.9671 H   0  0  0  0  0  0
    5.1462    0.0854    6.5618 H   0  0  0  0  0  0
  1  2  1  0  0  0
  2  3  1  0  0  0
  3  4  1  0  0  0
  4  5  1  0  0  0
  5  6  1  0  0  0
  5  7  1  0  0  0
  7  8  1  0  0  0
  7 39  1  0  0  0
  8  9  1  0  0  0
  8 27  1  0  0  0
  9 10  1  0  0  0
 10 11  1  0  0  0
 10 12  1  0  0  0
 12 13  1  0  0  0
 13 14  1  0  0  0
 13 26  1  0  0  0
 14 15  1  0  0  0
 15 16  1  0  0  0
 16 17  1  0  0  0
 17 18  1  0  0  0
 18 19  1  0  0  0
 18 25  1  0  0  0
 19 20  1  0  0  0
 20 21  1  0  0  0
 20 24  1  0  0  0
 21 22  1  0  0  0
 21 23  1  0  0  0
 23 51  1  0  0  0
 23 52  1  0  0  0
 24 53  1  0  0  0
 25 54  1  0  0  0
 26 55  1  0  0  0
 27 28  1  0  0  0
 28 29  2  0  0  0
 28 30  1  0  0  0
 30 31  1  0  0  0
 31 32  1  0  0  0
 31 36  1  0  0  0
 32 33  1  0  0  0
 33 34  2  0  0  0
 33 35  1  0  0  0
 35 56  1  0  0  0
 36 37  2  0  0  0
 36 38  1  0  0  0
 38 57  1  0  0  0
 39 40  1  0  0  0
 40 41  2  0  0  0
 40 42  1  0  0  0
 42 43  1  0  0  0
 43 44  1  0  0  0
 43 48  1  0  0  0
 44 45  1  0  0  0
 45 46  2  0  0  0
 45 47  1  0  0  0
 47 58  1  0  0  0
 48 49  2  0  0  0
 48 50  1  0  0  0
 50 59  1  0  0  0
M  END
>  <AUTHOR>
    GENERATED BY OPEN BABEL 2.4.1

>  <CHROM.1>
-178.05705764,177.48100615,84.08688646,-174.32853238,132.69632531,87.47336239
-79.57962036,63.17933009,-59.75920787,170.34890926,57.62181063,-90.29083203
68.67501869,18.67031097,162.61136501,-63.21968776,61.51042652,95.01402799
-51.23924877,88.79935982,-157.73857226,-62.71082893,-61.15690412,33.35416140
88.59492651,49.43177040,177.77387852,113.06753488,13.40148189,-2.77659564
-0.32753859,-160.17209732,-171.08478945,-75.53575857,-130.16276059,-12.91459757
111.47860333,175.13025833,4.79019756,2.46910546,-5.94192753,9.67836849,-1.45450789
-0.48790501,2.83641323

>  <COMPND>
    UNNAMED

>  <MASTER>
        0    0    0    0    0    0    0    0  109    0  109    0

>  <Name>
FB1.pdb

>  <RI>
0

>  <Rbt.Current_Directory>
/cluster/tossine/FB1_39T3/p3/0_clust01

>  <Rbt.Executable>
rbdock/0.1.0

>  <Rbt.Library>
librxdock.so/0.1.0

>  <Rbt.Parameter_File>
/cluster/rxdock/data/scripts/dock.prm

>  <Rbt.Receptor>
rx_0.prm

>  <SCORE>
2.58312

>  <SCORE.INTER>
2.3066

>  <SCORE.INTER.CONST>
1

>  <SCORE.INTER.POLAR>
-1.85295

>  <SCORE.INTER.REPUL>
0.163478

>  <SCORE.INTER.ROT>
32

>  <SCORE.INTER.VDW>
-29.6108

>  <SCORE.INTER.norm>
0.046132

>  <SCORE.INTRA>
0.276523

>  <SCORE.INTRA.DIHEDRAL>
6.16643

>  <SCORE.INTRA.DIHEDRAL.0>
47.3121

>  <SCORE.INTRA.POLAR>
-0.0447209

>  <SCORE.INTRA.POLAR.0>
-1.47808

>  <SCORE.INTRA.REPUL>
0

>  <SCORE.INTRA.REPUL.0>
0

>  <SCORE.INTRA.VDW>
-2.65464

>  <SCORE.INTRA.VDW.0>
-2.78316

>  <SCORE.INTRA.norm>
0.00553046

>  <SCORE.RESTR>
0

>  <SCORE.RESTR.CAVITY>
0

>  <SCORE.RESTR.norm>
0

>  <SCORE.SYSTEM>
0

>  <SCORE.SYSTEM.CONST>
0

>  <SCORE.SYSTEM.DIHEDRAL>
0

>  <SCORE.SYSTEM.norm>
0

>  <SCORE.heavy>
50

>  <SCORE.norm>
0.0516625

$$$$
