FB1.pdb
  RxDock  10062023563D
librxdock.so/0.1.0
 59 58  0  0  0  0  0  0  0  0999 V2000
   -0.0976   -5.8401   12.2963 C   0  0  0  0  0  0
   -0.7367   -7.0231   11.5729 C   0  0  0  0  0  0
    0.2098   -7.6267   10.5221 C   0  0  0  0  0  0
    0.3102   -6.7850    9.2255 C   0  0  0  0  0  0
    1.4295   -7.2412    8.2256 C   0  0  0  0  0  0
    1.2705   -6.4329    6.9172 C   0  0  0  0  0  0
    2.8978   -7.0940    8.8088 C   0  0  0  0  0  0
    3.4770   -5.6071    8.9498 C   0  0  0  0  0  0
    3.5828   -4.5503    7.7666 C   0  0  0  0  0  0
    4.7644   -4.8582    6.6573 C   0  0  0  0  0  0
    5.2634   -6.2873    6.8642 C   0  0  0  0  0  0
    4.3646   -4.6475    5.1274 C   0  0  0  0  0  0
    3.3356   -5.5992    4.3188 C   0  0  0  0  0  0
    2.6217   -5.1373    3.0023 C   0  0  0  0  0  0
    3.5098   -4.9308    1.6916 C   0  0  0  0  0  0
    4.5265   -3.7398    1.4856 C   0  0  0  0  0  0
    5.3462   -3.6530    0.1711 C   0  0  0  0  0  0
    6.3480   -2.4408    0.0431 C   0  0  0  0  0  0
    7.3218   -2.4864   -1.1411 C   0  0  0  0  0  0
    6.7560   -2.8308   -2.5481 C   0  0  0  0  0  0
    5.9085   -1.7892   -3.3369 C   0  0  0  0  0  0
    4.4006   -1.9978   -3.3298 C   0  0  0  0  0  0
    6.2526   -0.4141   -2.9284 N   0  0  0  0  0  0
    7.9290   -3.0601   -3.3699 O   0  0  0  0  0  0
    5.5767   -1.2381   -0.0483 O   0  0  0  0  0  0
    4.1136   -6.7475    3.9407 O   0  0  0  0  0  0
    2.6575   -4.9452    9.9512 O   0  0  0  0  0  0
    1.7346   -4.0549    9.5028 C   0  0  0  0  0  0
    0.9669   -4.2208    8.5741 O   0  0  0  0  0  0
    1.7461   -2.8581   10.4132 C   0  0  0  0  0  0
    1.2051   -1.5918    9.7304 C   0  0  0  0  0  0
   -0.3267   -1.5147    9.7619 C   0  0  0  0  0  0
   -0.8594   -1.8181   11.1430 C   0  0  0  0  0  0
   -1.0513   -0.9615   11.9993 O   0  0  0  0  0  0
   -1.1064   -3.1206   11.3463 O   0  0  0  0  0  0
    1.8065   -0.4078   10.5001 C   0  0  0  0  0  0
    2.6026    0.3750   10.0041 O   0  0  0  0  0  0
    1.4239   -0.3299   11.7821 O   0  0  0  0  0  0
    3.0570   -7.8720   10.0615 O   0  0  0  0  0  0
    4.3381   -8.1151   10.5281 C   0  0  0  0  0  0
    5.3647   -7.8106    9.9350 O   0  0  0  0  0  0
    4.3391   -8.8183   11.8918 C   0  0  0  0  0  0
    3.3845  -10.0457   12.0217 C   0  0  0  0  0  0
    3.9429  -11.4367   11.6697 C   0  0  0  0  0  0
    4.3135  -11.5704   10.2208 C   0  0  0  0  0  0
    5.4517  -11.5689    9.7724 O   0  0  0  0  0  0
    3.2409  -11.7169    9.4281 O   0  0  0  0  0  0
    2.6858  -10.1691   13.3814 C   0  0  0  0  0  0
    3.0108   -9.5148   14.3525 O   0  0  0  0  0  0
    1.6071  -10.9797   13.4071 O   0  0  0  0  0  0
    7.2607   -0.2856   -3.0036 H   0  0  0  0  0  0
    6.0471   -0.3081   -1.9324 H   0  0  0  0  0  0
    8.4011   -2.2008   -3.3713 H   0  0  0  0  0  0
    4.7892   -1.4225   -0.5927 H   0  0  0  0  0  0
    3.5921   -7.2688    3.3077 H   0  0  0  0  0  0
   -0.9007   -3.7062   10.5925 H   0  0  0  0  0  0
    1.9925    0.2519   12.3451 H   0  0  0  0  0  0
    2.4521  -11.6458   10.0061 H   0  0  0  0  0  0
    1.4066  -11.4383   12.5612 H   0  0  0  0  0  0
  1  2  1  0  0  0
  2  3  1  0  0  0
  3  4  1  0  0  0
  4  5  1  0  0  0
  5  6  1  0  0  0
  5  7  1  0  0  0
  7  8  1  0  0  0
  7 39  1  0  0  0
  8  9  1  0  0  0
  8 27  1  0  0  0
  9 10  1  0  0  0
 10 11  1  0  0  0
 10 12  1  0  0  0
 12 13  1  0  0  0
 13 14  1  0  0  0
 13 26  1  0  0  0
 14 15  1  0  0  0
 15 16  1  0  0  0
 16 17  1  0  0  0
 17 18  1  0  0  0
 18 19  1  0  0  0
 18 25  1  0  0  0
 19 20  1  0  0  0
 20 21  1  0  0  0
 20 24  1  0  0  0
 21 22  1  0  0  0
 21 23  1  0  0  0
 23 51  1  0  0  0
 23 52  1  0  0  0
 24 53  1  0  0  0
 25 54  1  0  0  0
 26 55  1  0  0  0
 27 28  1  0  0  0
 28 29  2  0  0  0
 28 30  1  0  0  0
 30 31  1  0  0  0
 31 32  1  0  0  0
 31 36  1  0  0  0
 32 33  1  0  0  0
 33 34  2  0  0  0
 33 35  1  0  0  0
 35 56  1  0  0  0
 36 37  2  0  0  0
 36 38  1  0  0  0
 38 57  1  0  0  0
 39 40  1  0  0  0
 40 41  2  0  0  0
 40 42  1  0  0  0
 42 43  1  0  0  0
 43 44  1  0  0  0
 43 48  1  0  0  0
 44 45  1  0  0  0
 45 46  2  0  0  0
 45 47  1  0  0  0
 47 58  1  0  0  0
 48 49  2  0  0  0
 48 50  1  0  0  0
 50 59  1  0  0  0
M  END
>  <AUTHOR>
    GENERATED BY OPEN BABEL 2.4.1

>  <CHROM.1>
-76.47677555,170.79490845,172.38532971,-72.27043540,-55.69803243,164.86544408
-72.91521890,-103.98009871,13.41109429,-69.78172567,160.31212381,68.37706917
-169.19768189,-71.71931613,179.37961194,-179.59097173,170.01074823,47.05771828
-38.30981930,73.51395202,-101.99697966,-62.53949122,52.82500179,45.79575585
156.65356582,83.08520632,47.14910667,114.09306719,90.45084196,0.94964560
163.09900949,-5.12012060,47.30174436,90.51136975,-64.89525289,-12.11197524
104.89642814,3.30483863,2.66736499,3.12775340,-5.29300731,7.22933833,2.14331201
-1.05026821,2.44897804

>  <COMPND>
    UNNAMED

>  <MASTER>
        0    0    0    0    0    0    0    0  109    0  109    0

>  <Name>
FB1.pdb

>  <RI>
0

>  <Rbt.Current_Directory>
/cluster/tossine/FB1_39T3/p3/0_clust01

>  <Rbt.Executable>
rbdock/0.1.0

>  <Rbt.Library>
librxdock.so/0.1.0

>  <Rbt.Parameter_File>
/cluster/rxdock/data/scripts/dock.prm

>  <Rbt.Receptor>
rx_2.prm

>  <SCORE>
16.4776

>  <SCORE.INTER>
1.52544

>  <SCORE.INTER.CONST>
1

>  <SCORE.INTER.POLAR>
-2.84341

>  <SCORE.INTER.REPUL>
0.929209

>  <SCORE.INTER.ROT>
32

>  <SCORE.INTER.VDW>
-30.853

>  <SCORE.INTER.norm>
0.0305088

>  <SCORE.INTRA>
14.9522

>  <SCORE.INTRA.DIHEDRAL>
6.52983

>  <SCORE.INTRA.DIHEDRAL.0>
47.3121

>  <SCORE.INTRA.POLAR>
1.04334

>  <SCORE.INTRA.POLAR.0>
-1.47808

>  <SCORE.INTRA.REPUL>
0

>  <SCORE.INTRA.REPUL.0>
0

>  <SCORE.INTRA.VDW>
8.13992

>  <SCORE.INTRA.VDW.0>
-2.78316

>  <SCORE.INTRA.norm>
0.299044

>  <SCORE.RESTR>
0

>  <SCORE.RESTR.CAVITY>
0

>  <SCORE.RESTR.norm>
0

>  <SCORE.SYSTEM>
0

>  <SCORE.SYSTEM.CONST>
0

>  <SCORE.SYSTEM.DIHEDRAL>
0

>  <SCORE.SYSTEM.norm>
0

>  <SCORE.heavy>
50

>  <SCORE.norm>
0.329553

$$$$
