FB1.pdb
  RxDock  10062023573D
librxdock.so/0.1.0
 59 58  0  0  0  0  0  0  0  0999 V2000
   -0.9416   -0.9556   11.9729 C   0  0  0  0  0  0
   -0.5420   -0.5487   10.5565 C   0  0  0  0  0  0
   -1.0035   -1.5820    9.5156 C   0  0  0  0  0  0
   -0.1731   -2.8896    9.5331 C   0  0  0  0  0  0
    1.3190   -2.7318    9.0756 C   0  0  0  0  0  0
    2.1145   -2.0801   10.2302 C   0  0  0  0  0  0
    1.9904   -4.0966    8.6234 C   0  0  0  0  0  0
    3.1530   -4.0046    7.5253 C   0  0  0  0  0  0
    4.1021   -2.7488    7.3007 C   0  0  0  0  0  0
    5.1191   -2.4076    8.5539 C   0  0  0  0  0  0
    6.5077   -2.9452    8.2119 C   0  0  0  0  0  0
    5.2282   -0.8722    8.9728 C   0  0  0  0  0  0
    5.7708    0.2986    7.9965 C   0  0  0  0  0  0
    5.3274    0.4156    6.4979 C   0  0  0  0  0  0
    4.1792    1.4612    6.1272 C   0  0  0  0  0  0
    3.4574    1.5279    4.7239 C   0  0  0  0  0  0
    4.0896    2.3610    3.5778 C   0  0  0  0  0  0
    5.5108    1.8997    3.0713 C   0  0  0  0  0  0
    5.5975    0.4839    2.4876 C   0  0  0  0  0  0
    5.1060    0.2560    1.0300 C   0  0  0  0  0  0
    5.6805    1.1069   -0.1411 C   0  0  0  0  0  0
    5.9962    0.3604   -1.4297 C   0  0  0  0  0  0
    4.8260    2.2797   -0.4069 N   0  0  0  0  0  0
    5.4860   -1.1098    0.7233 O   0  0  0  0  0  0
    5.9480    2.8300    2.0746 O   0  0  0  0  0  0
    5.3383    1.5234    8.6124 O   0  0  0  0  0  0
    4.0660   -5.0997    7.8074 O   0  0  0  0  0  0
    3.6425   -6.3520    7.4946 C   0  0  0  0  0  0
    3.2383   -7.1911    8.2769 O   0  0  0  0  0  0
    3.6589   -6.5001    5.9982 C   0  0  0  0  0  0
    5.0252   -6.9606    5.4655 C   0  0  0  0  0  0
    5.0758   -7.0020    3.9329 C   0  0  0  0  0  0
    4.2251   -5.9086    3.3296 C   0  0  0  0  0  0
    3.0881   -6.0889    2.9071 O   0  0  0  0  0  0
    4.8329   -4.7133    3.3005 O   0  0  0  0  0  0
    6.0485   -5.9479    5.9977 C   0  0  0  0  0  0
    6.4211   -4.9768    5.3570 O   0  0  0  0  0  0
    6.5402   -6.2430    7.2089 O   0  0  0  0  0  0
    2.3989   -4.9069    9.7967 O   0  0  0  0  0  0
    1.4095   -5.4516   10.5982 C   0  0  0  0  0  0
    0.2147   -5.4437   10.3320 O   0  0  0  0  0  0
    1.9753   -6.0792   11.8789 C   0  0  0  0  0  0
    2.1366   -7.6310   11.8587 C   0  0  0  0  0  0
    3.0427   -8.2780   12.9222 C   0  0  0  0  0  0
    4.5029   -8.0249   12.6812 C   0  0  0  0  0  0
    5.0069   -7.7210   11.6087 O   0  0  0  0  0  0
    5.2363   -8.1484   13.7979 O   0  0  0  0  0  0
    0.8151   -8.4094   11.8555 C   0  0  0  0  0  0
    0.6431   -9.4157   11.1962 O   0  0  0  0  0  0
   -0.1211   -7.9653   12.7201 O   0  0  0  0  0  0
    4.0950    2.0178   -1.0668 H   0  0  0  0  0  0
    5.3820    2.9849   -0.8959 H   0  0  0  0  0  0
    6.4663   -1.1037    0.7442 H   0  0  0  0  0  0
    5.9488    3.7212    2.4699 H   0  0  0  0  0  0
    5.6626    2.2629    8.0716 H   0  0  0  0  0  0
    5.7540   -4.7064    3.6244 H   0  0  0  0  0  0
    7.2067   -5.5961    7.5497 H   0  0  0  0  0  0
    6.1494   -7.8762   13.5664 H   0  0  0  0  0  0
    0.1332   -7.1731   13.2435 H   0  0  0  0  0  0
  1  2  1  0  0  0
  2  3  1  0  0  0
  3  4  1  0  0  0
  4  5  1  0  0  0
  5  6  1  0  0  0
  5  7  1  0  0  0
  7  8  1  0  0  0
  7 39  1  0  0  0
  8  9  1  0  0  0
  8 27  1  0  0  0
  9 10  1  0  0  0
 10 11  1  0  0  0
 10 12  1  0  0  0
 12 13  1  0  0  0
 13 14  1  0  0  0
 13 26  1  0  0  0
 14 15  1  0  0  0
 15 16  1  0  0  0
 16 17  1  0  0  0
 17 18  1  0  0  0
 18 19  1  0  0  0
 18 25  1  0  0  0
 19 20  1  0  0  0
 20 21  1  0  0  0
 20 24  1  0  0  0
 21 22  1  0  0  0
 21 23  1  0  0  0
 23 51  1  0  0  0
 23 52  1  0  0  0
 24 53  1  0  0  0
 25 54  1  0  0  0
 26 55  1  0  0  0
 27 28  1  0  0  0
 28 29  2  0  0  0
 28 30  1  0  0  0
 30 31  1  0  0  0
 31 32  1  0  0  0
 31 36  1  0  0  0
 32 33  1  0  0  0
 33 34  2  0  0  0
 33 35  1  0  0  0
 35 56  1  0  0  0
 36 37  2  0  0  0
 36 38  1  0  0  0
 38 57  1  0  0  0
 39 40  1  0  0  0
 40 41  2  0  0  0
 40 42  1  0  0  0
 42 43  1  0  0  0
 43 44  1  0  0  0
 43 48  1  0  0  0
 44 45  1  0  0  0
 45 46  2  0  0  0
 45 47  1  0  0  0
 47 58  1  0  0  0
 48 49  2  0  0  0
 48 50  1  0  0  0
 50 59  1  0  0  0
M  END
>  <AUTHOR>
    GENERATED BY OPEN BABEL 2.4.1

>  <CHROM.1>
-73.44770616,-67.08092360,76.29670709,151.05404820,27.42424661,68.49735027
65.64346628,73.12000772,100.84760750,-61.97268410,44.40051646,99.17468822
178.52272550,-169.30716014,-86.24003655,62.51686356,60.93202019,78.97837430
56.94318828,54.68815863,138.05558191,-64.66612242,-87.73362686,-103.46881071
87.20168195,-175.34783863,33.61354842,-94.60789750,-98.73837134,3.05611171
179.42412030,8.63504611,-100.00496925,163.24135471,-72.18429743,140.60124859
-21.58655662,-174.21302905,1.66369666,3.67178454,-3.44221649,7.25006380,2.13448295
-1.07677409,2.75468402

>  <COMPND>
    UNNAMED

>  <MASTER>
        0    0    0    0    0    0    0    0  109    0  109    0

>  <Name>
FB1.pdb

>  <RI>
0

>  <Rbt.Current_Directory>
/cluster/tossine/FB1_39T3/p3/0_clust01

>  <Rbt.Executable>
rbdock/0.1.0

>  <Rbt.Library>
librxdock.so/0.1.0

>  <Rbt.Parameter_File>
/cluster/rxdock/data/scripts/dock.prm

>  <Rbt.Receptor>
rx_2.prm

>  <SCORE>
21.328

>  <SCORE.INTER>
4.93516

>  <SCORE.INTER.CONST>
1

>  <SCORE.INTER.POLAR>
-3.33197

>  <SCORE.INTER.REPUL>
0.763301

>  <SCORE.INTER.ROT>
32

>  <SCORE.INTER.VDW>
-24.9526

>  <SCORE.INTER.norm>
0.0987033

>  <SCORE.INTRA>
16.3929

>  <SCORE.INTRA.DIHEDRAL>
20.8139

>  <SCORE.INTRA.DIHEDRAL.0>
47.3121

>  <SCORE.INTRA.POLAR>
0.905803

>  <SCORE.INTRA.POLAR.0>
-1.47808

>  <SCORE.INTRA.REPUL>
0.00166291

>  <SCORE.INTRA.REPUL.0>
0

>  <SCORE.INTRA.VDW>
2.89786

>  <SCORE.INTRA.VDW.0>
-2.78316

>  <SCORE.INTRA.norm>
0.327857

>  <SCORE.RESTR>
0

>  <SCORE.RESTR.CAVITY>
0

>  <SCORE.RESTR.norm>
0

>  <SCORE.SYSTEM>
0

>  <SCORE.SYSTEM.CONST>
0

>  <SCORE.SYSTEM.DIHEDRAL>
0

>  <SCORE.SYSTEM.norm>
0

>  <SCORE.heavy>
50

>  <SCORE.norm>
0.426561

$$$$
