FB1.pdb
  RxDock  10072000313D
librxdock.so/0.1.0
 59 58  0  0  0  0  0  0  0  0999 V2000
    2.1370    2.7525    7.8784 C   0  0  0  0  0  0
    3.0403    2.6282    6.6537 C   0  0  0  0  0  0
    3.8380    1.3138    6.6655 C   0  0  0  0  0  0
    4.4114    0.9268    5.2794 C   0  0  0  0  0  0
    4.9012   -0.5583    5.1573 C   0  0  0  0  0  0
    6.0412   -0.7791    6.1782 C   0  0  0  0  0  0
    3.7442   -1.6253    5.3590 C   0  0  0  0  0  0
    3.6444   -2.8012    4.2757 C   0  0  0  0  0  0
    3.9225   -2.6369    2.7188 C   0  0  0  0  0  0
    3.5308   -3.9472    1.7962 C   0  0  0  0  0  0
    2.0452   -4.2482    1.9871 C   0  0  0  0  0  0
    3.8578   -3.8338    0.2390 C   0  0  0  0  0  0
    5.3471   -3.9368   -0.3855 C   0  0  0  0  0  0
    5.8436   -2.9933   -1.5342 C   0  0  0  0  0  0
    5.3018   -3.2514   -3.0137 C   0  0  0  0  0  0
    5.7341   -2.4092   -4.2780 C   0  0  0  0  0  0
    7.2390   -2.1303   -4.5328 C   0  0  0  0  0  0
    7.5813   -0.9070   -5.4684 C   0  0  0  0  0  0
    7.4170    0.4874   -4.8510 C   0  0  0  0  0  0
    5.9787    0.9941   -4.5464 C   0  0  0  0  0  0
    5.1378    0.3496   -3.4050 C   0  0  0  0  0  0
    5.5604    0.6829   -1.9810 C   0  0  0  0  0  0
    3.6988    0.6083   -3.6021 N   0  0  0  0  0  0
    6.1531    2.3781   -4.1488 O   0  0  0  0  0  0
    8.9359   -1.0528   -5.9084 O   0  0  0  0  0  0
    6.2298   -3.6792    0.7195 O   0  0  0  0  0  0
    4.5813   -3.8272    4.7022 O   0  0  0  0  0  0
    4.1576   -4.6881    5.6638 C   0  0  0  0  0  0
    3.0295   -4.7680    6.1115 O   0  0  0  0  0  0
    5.2962   -5.6045    6.0175 C   0  0  0  0  0  0
    5.4522   -5.7939    7.5348 C   0  0  0  0  0  0
    4.1821   -6.3487    8.1924 C   0  0  0  0  0  0
    4.2540   -6.2364    9.6976 C   0  0  0  0  0  0
    4.7948   -7.0710   10.4150 O   0  0  0  0  0  0
    3.6686   -5.1300   10.1794 O   0  0  0  0  0  0
    6.6133   -6.7806    7.7196 C   0  0  0  0  0  0
    6.4869   -7.8637    8.2703 O   0  0  0  0  0  0
    7.7945   -6.3352    7.2697 O   0  0  0  0  0  0
    3.7339   -2.1481    6.7470 O   0  0  0  0  0  0
    2.5374   -2.1429    7.4444 C   0  0  0  0  0  0
    2.4308   -1.9169    8.6426 O   0  0  0  0  0  0
    1.3352   -2.4551    6.5434 C   0  0  0  0  0  0
    0.2041   -3.3097    7.1952 C   0  0  0  0  0  0
    0.6051   -4.6052    7.9240 C   0  0  0  0  0  0
   -0.5765   -5.4035    8.3942 C   0  0  0  0  0  0
   -1.7382   -5.2262    8.0543 O   0  0  0  0  0  0
   -0.2291   -6.3833    9.2426 O   0  0  0  0  0  0
   -0.7231   -2.5296    8.1354 C   0  0  0  0  0  0
   -0.8339   -2.7879    9.3176 O   0  0  0  0  0  0
   -1.3357   -1.4589    7.5880 O   0  0  0  0  0  0
    3.3117    1.0102   -2.7494 H   0  0  0  0  0  0
    3.2181   -0.2874   -3.7130 H   0  0  0  0  0  0
    5.2833    2.7961   -4.3225 H   0  0  0  0  0  0
    9.1551   -0.2910   -6.4758 H   0  0  0  0  0  0
    7.1372   -3.8745    0.4314 H   0  0  0  0  0  0
    3.6424   -5.0629   11.1532 H   0  0  0  0  0  0
    8.5500   -6.9568    7.4165 H   0  0  0  0  0  0
    0.7362   -6.2973    9.3915 H   0  0  0  0  0  0
   -1.1098   -1.2813    6.6480 H   0  0  0  0  0  0
  1  2  1  0  0  0
  2  3  1  0  0  0
  3  4  1  0  0  0
  4  5  1  0  0  0
  5  6  1  0  0  0
  5  7  1  0  0  0
  7  8  1  0  0  0
  7 39  1  0  0  0
  8  9  1  0  0  0
  8 27  1  0  0  0
  9 10  1  0  0  0
 10 11  1  0  0  0
 10 12  1  0  0  0
 12 13  1  0  0  0
 13 14  1  0  0  0
 13 26  1  0  0  0
 14 15  1  0  0  0
 15 16  1  0  0  0
 16 17  1  0  0  0
 17 18  1  0  0  0
 18 19  1  0  0  0
 18 25  1  0  0  0
 19 20  1  0  0  0
 20 21  1  0  0  0
 20 24  1  0  0  0
 21 22  1  0  0  0
 21 23  1  0  0  0
 23 51  1  0  0  0
 23 52  1  0  0  0
 24 53  1  0  0  0
 25 54  1  0  0  0
 26 55  1  0  0  0
 27 28  1  0  0  0
 28 29  2  0  0  0
 28 30  1  0  0  0
 30 31  1  0  0  0
 31 32  1  0  0  0
 31 36  1  0  0  0
 32 33  1  0  0  0
 33 34  2  0  0  0
 33 35  1  0  0  0
 35 56  1  0  0  0
 36 37  2  0  0  0
 36 38  1  0  0  0
 38 57  1  0  0  0
 39 40  1  0  0  0
 40 41  2  0  0  0
 40 42  1  0  0  0
 42 43  1  0  0  0
 43 44  1  0  0  0
 43 48  1  0  0  0
 44 45  1  0  0  0
 45 46  2  0  0  0
 45 47  1  0  0  0
 47 58  1  0  0  0
 48 49  2  0  0  0
 48 50  1  0  0  0
 50 59  1  0  0  0
M  END
>  <AUTHOR>
    GENERATED BY OPEN BABEL 2.4.1

>  <CHROM.1>
161.81787757,-164.85085454,-61.19913978,132.04175492,-37.01822099,129.31921322
-171.21893224,81.86512502,58.60613248,74.43911621,-138.39170317,-74.49399383
170.71810639,-178.54197932,47.79346030,-159.12143775,75.21372622,-69.67483422
-179.13296769,69.60215676,72.77678038,156.85487582,-127.57906481,7.64271836
135.40235492,57.90195728,-167.41604617,-119.25472506,-84.99866816,175.73242047
177.96757084,-143.42363583,143.47410457,-49.66168016,-174.54663309,-118.39031925
12.97024629,3.43029065,-1.11756938,3.94344533,-2.77037796,3.90178738,2.06173633
-0.88112449,2.25496364

>  <COMPND>
    UNNAMED

>  <MASTER>
        0    0    0    0    0    0    0    0  109    0  109    0

>  <Name>
FB1.pdb

>  <RI>
0

>  <Rbt.Current_Directory>
/cluster/tossine/FB1_39T3/p3/0_clust01

>  <Rbt.Executable>
rbdock/0.1.0

>  <Rbt.Library>
librxdock.so/0.1.0

>  <Rbt.Parameter_File>
/cluster/rxdock/data/scripts/dock.prm

>  <Rbt.Receptor>
rx_3.prm

>  <SCORE>
0.10622

>  <SCORE.INTER>
-11.9527

>  <SCORE.INTER.CONST>
1

>  <SCORE.INTER.POLAR>
-5.39268

>  <SCORE.INTER.REPUL>
0.462773

>  <SCORE.INTER.ROT>
32

>  <SCORE.INTER.VDW>
-33.3314

>  <SCORE.INTER.norm>
-0.239053

>  <SCORE.INTRA>
12.0464

>  <SCORE.INTRA.DIHEDRAL>
7.19814

>  <SCORE.INTRA.DIHEDRAL.0>
47.3121

>  <SCORE.INTRA.POLAR>
1.47808

>  <SCORE.INTRA.POLAR.0>
-1.47808

>  <SCORE.INTRA.REPUL>
0.0452738

>  <SCORE.INTRA.REPUL.0>
0

>  <SCORE.INTRA.VDW>
3.19549

>  <SCORE.INTRA.VDW.0>
-2.78316

>  <SCORE.INTRA.norm>
0.240928

>  <SCORE.RESTR>
0.0124946

>  <SCORE.RESTR.CAVITY>
0.0124946

>  <SCORE.RESTR.norm>
0.000249892

>  <SCORE.SYSTEM>
0

>  <SCORE.SYSTEM.CONST>
0

>  <SCORE.SYSTEM.DIHEDRAL>
0

>  <SCORE.SYSTEM.norm>
0

>  <SCORE.heavy>
50

>  <SCORE.norm>
0.0021244

$$$$
