FB1.pdb
  RxDock  10062023553D
librxdock.so/0.1.0
 59 58  0  0  0  0  0  0  0  0999 V2000
    5.9185  -10.2133    9.8838 C   0  0  0  0  0  0
    5.5770   -8.7360   10.0640 C   0  0  0  0  0  0
    5.8224   -7.9337    8.7755 C   0  0  0  0  0  0
    5.5038   -6.4244    8.9177 C   0  0  0  0  0  0
    3.9987   -6.0902    9.2062 C   0  0  0  0  0  0
    3.9446   -4.9989   10.3001 C   0  0  0  0  0  0
    3.1913   -5.6410    7.9161 C   0  0  0  0  0  0
    4.0427   -5.3587    6.5889 C   0  0  0  0  0  0
    3.5080   -5.5412    5.1027 C   0  0  0  0  0  0
    2.0039   -4.9257    4.8199 C   0  0  0  0  0  0
    1.9256   -3.5318    5.4406 C   0  0  0  0  0  0
    1.5478   -4.8575    3.2927 C   0  0  0  0  0  0
    2.1933   -3.8575    2.1964 C   0  0  0  0  0  0
    3.7099   -3.9068    1.8044 C   0  0  0  0  0  0
    4.2790   -2.7725    0.8357 C   0  0  0  0  0  0
    5.6948   -2.8280    0.1378 C   0  0  0  0  0  0
    6.1620   -1.6366   -0.7396 C   0  0  0  0  0  0
    6.2647   -0.2329   -0.0267 C   0  0  0  0  0  0
    7.3964    0.6880   -0.4995 C   0  0  0  0  0  0
    7.0822    1.7336   -1.6069 C   0  0  0  0  0  0
    6.2378    1.3364   -2.8537 C   0  0  0  0  0  0
    6.1091    2.3872   -3.9476 C   0  0  0  0  0  0
    6.6960    0.0492   -3.4103 N   0  0  0  0  0  0
    6.3028    2.7566   -0.9361 O   0  0  0  0  0  0
    5.0183    0.4475   -0.2093 O   0  0  0  0  0  0
    1.4818   -4.1353    0.9786 O   0  0  0  0  0  0
    4.4499   -3.9651    6.6562 O   0  0  0  0  0  0
    5.4224   -3.6490    7.5505 C   0  0  0  0  0  0
    6.5239   -4.1592    7.6257 O   0  0  0  0  0  0
    4.9493   -2.4848    8.3764 C   0  0  0  0  0  0
    3.9413   -1.5996    7.6262 C   0  0  0  0  0  0
    3.3271   -0.5170    8.5229 C   0  0  0  0  0  0
    2.1374    0.1331    7.8556 C   0  0  0  0  0  0
    1.6474   -0.2658    6.8046 O   0  0  0  0  0  0
    1.6626    1.1938    8.5253 O   0  0  0  0  0  0
    4.7245   -0.9485    6.4779 C   0  0  0  0  0  0
    5.1673    0.1887    6.5332 O   0  0  0  0  0  0
    4.8418   -1.7144    5.3844 O   0  0  0  0  0  0
    2.0467   -6.5483    7.6579 O   0  0  0  0  0  0
    0.8891   -6.3762    8.3984 C   0  0  0  0  0  0
    0.4922   -5.3020    8.8306 O   0  0  0  0  0  0
    0.1398   -7.6958    8.6256 C   0  0  0  0  0  0
   -0.2384   -8.0139   10.1055 C   0  0  0  0  0  0
   -1.2091   -7.0599   10.8252 C   0  0  0  0  0  0
   -0.6669   -6.5432   12.1265 C   0  0  0  0  0  0
    0.5144   -6.3553   12.3830 O   0  0  0  0  0  0
   -1.6352   -6.2764   13.0162 O   0  0  0  0  0  0
   -0.7484   -9.4411   10.3407 C   0  0  0  0  0  0
   -0.1700  -10.2405   11.0500 O   0  0  0  0  0  0
   -1.9478   -9.7256    9.7914 O   0  0  0  0  0  0
    5.9455   -0.6355   -3.3302 H   0  0  0  0  0  0
    7.4475   -0.3132   -2.8192 H   0  0  0  0  0  0
    5.5140    2.2831   -0.5971 H   0  0  0  0  0  0
    4.3019   -0.1470    0.0802 H   0  0  0  0  0  0
    1.3118   -5.0914    0.9411 H   0  0  0  0  0  0
    0.7980    1.5276    8.2180 H   0  0  0  0  0  0
    4.5615   -2.6548    5.5105 H   0  0  0  0  0  0
   -2.4883   -6.4340   12.5592 H   0  0  0  0  0  0
   -2.2886   -9.0560    9.1576 H   0  0  0  0  0  0
  1  2  1  0  0  0
  2  3  1  0  0  0
  3  4  1  0  0  0
  4  5  1  0  0  0
  5  6  1  0  0  0
  5  7  1  0  0  0
  7  8  1  0  0  0
  7 39  1  0  0  0
  8  9  1  0  0  0
  8 27  1  0  0  0
  9 10  1  0  0  0
 10 11  1  0  0  0
 10 12  1  0  0  0
 12 13  1  0  0  0
 13 14  1  0  0  0
 13 26  1  0  0  0
 14 15  1  0  0  0
 15 16  1  0  0  0
 16 17  1  0  0  0
 17 18  1  0  0  0
 18 19  1  0  0  0
 18 25  1  0  0  0
 19 20  1  0  0  0
 20 21  1  0  0  0
 20 24  1  0  0  0
 21 22  1  0  0  0
 21 23  1  0  0  0
 23 51  1  0  0  0
 23 52  1  0  0  0
 24 53  1  0  0  0
 25 54  1  0  0  0
 26 55  1  0  0  0
 27 28  1  0  0  0
 28 29  2  0  0  0
 28 30  1  0  0  0
 30 31  1  0  0  0
 31 32  1  0  0  0
 31 36  1  0  0  0
 32 33  1  0  0  0
 33 34  2  0  0  0
 33 35  1  0  0  0
 35 56  1  0  0  0
 36 37  2  0  0  0
 36 38  1  0  0  0
 38 57  1  0  0  0
 39 40  1  0  0  0
 40 41  2  0  0  0
 40 42  1  0  0  0
 42 43  1  0  0  0
 43 44  1  0  0  0
 43 48  1  0  0  0
 44 45  1  0  0  0
 45 46  2  0  0  0
 45 47  1  0  0  0
 47 58  1  0  0  0
 48 49  2  0  0  0
 48 50  1  0  0  0
 50 59  1  0  0  0
M  END
>  <AUTHOR>
    GENERATED BY OPEN BABEL 2.4.1

>  <CHROM.1>
-179.33924770,-64.02413873,136.78783797,-9.75129859,151.02568917,79.74701722
45.31446391,72.94396410,45.50338705,-69.17235588,60.95977198,-173.26891004
-37.28642084,-168.11917471,-177.57754578,59.67877417,145.31985595,93.86867494
52.31984716,-43.79677977,-173.80223950,-59.71579891,116.28850562,54.79681335
-27.28401069,172.84194582,-167.62017800,-99.01683286,7.66971918,-168.62913933
-10.86225773,31.17522149,128.55316347,63.10393635,-126.28179910,116.99530627
30.61451373,-3.80560494,11.33655918,3.33454949,-3.80181467,5.84356745,3.13386152
1.23184256,0.61452596

>  <COMPND>
    UNNAMED

>  <MASTER>
        0    0    0    0    0    0    0    0  109    0  109    0

>  <Name>
FB1.pdb

>  <RI>
0

>  <Rbt.Current_Directory>
/cluster/tossine/FB1_39T3/p3/0_clust01

>  <Rbt.Executable>
rbdock/0.1.0

>  <Rbt.Library>
librxdock.so/0.1.0

>  <Rbt.Parameter_File>
/cluster/rxdock/data/scripts/dock.prm

>  <Rbt.Receptor>
rx_2.prm

>  <SCORE>
7.61256

>  <SCORE.INTER>
-4.26255

>  <SCORE.INTER.CONST>
1

>  <SCORE.INTER.POLAR>
-3.47672

>  <SCORE.INTER.REPUL>
0.284331

>  <SCORE.INTER.ROT>
32

>  <SCORE.INTER.VDW>
-31.2634

>  <SCORE.INTER.norm>
-0.085251

>  <SCORE.INTRA>
11.8751

>  <SCORE.INTRA.DIHEDRAL>
24.2457

>  <SCORE.INTRA.DIHEDRAL.0>
47.3121

>  <SCORE.INTRA.POLAR>
-0.155633

>  <SCORE.INTRA.POLAR.0>
-1.47808

>  <SCORE.INTRA.REPUL>
0

>  <SCORE.INTRA.REPUL.0>
0

>  <SCORE.INTRA.VDW>
0.281428

>  <SCORE.INTRA.VDW.0>
-2.78316

>  <SCORE.INTRA.norm>
0.237502

>  <SCORE.RESTR>
0

>  <SCORE.RESTR.CAVITY>
0

>  <SCORE.RESTR.norm>
0

>  <SCORE.SYSTEM>
0

>  <SCORE.SYSTEM.CONST>
0

>  <SCORE.SYSTEM.DIHEDRAL>
0

>  <SCORE.SYSTEM.norm>
0

>  <SCORE.heavy>
50

>  <SCORE.norm>
0.152251

$$$$
