FB1.pdb
  RxDock  10072000333D
librxdock.so/0.1.0
 59 58  0  0  0  0  0  0  0  0999 V2000
    5.6287    3.7588    2.8796 C   0  0  0  0  0  0
    4.6007    2.6873    3.2349 C   0  0  0  0  0  0
    4.6354    2.3390    4.7322 C   0  0  0  0  0  0
    3.6115    1.2492    5.1366 C   0  0  0  0  0  0
    4.0015   -0.2120    4.7205 C   0  0  0  0  0  0
    5.1715   -0.6767    5.6182 C   0  0  0  0  0  0
    2.7908   -1.2352    4.7915 C   0  0  0  0  0  0
    2.9787   -2.6355    4.0364 C   0  0  0  0  0  0
    3.0088   -2.8273    2.4583 C   0  0  0  0  0  0
    3.5994   -4.2782    1.9411 C   0  0  0  0  0  0
    2.7587   -4.7493    0.7556 C   0  0  0  0  0  0
    5.1447   -4.3079    1.5464 C   0  0  0  0  0  0
    5.7252   -3.8267    0.1146 C   0  0  0  0  0  0
    4.8129   -3.1968   -0.9931 C   0  0  0  0  0  0
    5.4387   -2.9534   -2.4416 C   0  0  0  0  0  0
    4.6032   -2.5159   -3.7086 C   0  0  0  0  0  0
    5.3294   -2.2804   -5.0593 C   0  0  0  0  0  0
    6.0987   -0.9121   -5.2176 C   0  0  0  0  0  0
    6.6473   -0.2880   -3.9283 C   0  0  0  0  0  0
    5.7076    0.6291   -3.0952 C   0  0  0  0  0  0
    6.0926    1.0485   -1.6456 C   0  0  0  0  0  0
    6.9911    2.2698   -1.5097 C   0  0  0  0  0  0
    4.8908    1.1813   -0.8003 N   0  0  0  0  0  0
    5.6490    1.8710   -3.8423 O   0  0  0  0  0  0
    7.1890   -1.1204   -6.1217 O   0  0  0  0  0  0
    6.6896   -2.8084    0.4302 O   0  0  0  0  0  0
    4.2510   -3.1733    4.4886 O   0  0  0  0  0  0
    4.2178   -4.3527    5.1618 C   0  0  0  0  0  0
    3.9638   -5.4442    4.6888 O   0  0  0  0  0  0
    4.6492   -4.1032    6.5806 C   0  0  0  0  0  0
    4.9153   -5.4044    7.3542 C   0  0  0  0  0  0
    5.6783   -5.1653    8.6634 C   0  0  0  0  0  0
    6.7770   -6.1861    8.8483 C   0  0  0  0  0  0
    7.6230   -6.4339    7.9958 O   0  0  0  0  0  0
    6.7418   -6.7991   10.0407 O   0  0  0  0  0  0
    3.5357   -6.0073    7.6528 C   0  0  0  0  0  0
    2.9917   -5.9204    8.7432 O   0  0  0  0  0  0
    2.9942   -6.6830    6.6300 O   0  0  0  0  0  0
    2.3242   -1.4165    6.1876 O   0  0  0  0  0  0
    1.0973   -2.0232    6.3990 C   0  0  0  0  0  0
    0.5251   -2.7385    5.5870 O   0  0  0  0  0  0
    0.5174   -1.7013    7.7826 C   0  0  0  0  0  0
    1.0505   -2.5748    8.9604 C   0  0  0  0  0  0
    0.5357   -4.0209    9.0792 C   0  0  0  0  0  0
    0.1044   -4.6000    7.7628 C   0  0  0  0  0  0
   -1.0472   -4.8553    7.4385 O   0  0  0  0  0  0
    1.1361   -4.8047    6.9296 O   0  0  0  0  0  0
    2.5791   -2.6275    9.0741 C   0  0  0  0  0  0
    3.3166   -1.9608    8.3752 O   0  0  0  0  0  0
    3.0594   -3.3877   10.0804 O   0  0  0  0  0  0
    4.4452    0.2695   -0.7075 H   0  0  0  0  0  0
    4.2069    1.7597   -1.2935 H   0  0  0  0  0  0
    4.9506    2.3947   -3.3959 H   0  0  0  0  0  0
    7.7033   -1.8864   -5.8068 H   0  0  0  0  0  0
    6.2060   -2.0050    0.6856 H   0  0  0  0  0  0
    6.0215   -6.5134   10.6349 H   0  0  0  0  0  0
    3.5461   -6.6955    5.8089 H   0  0  0  0  0  0
    0.7546   -5.1070    6.0785 H   0  0  0  0  0  0
    3.9846   -3.1927   10.3490 H   0  0  0  0  0  0
  1  2  1  0  0  0
  2  3  1  0  0  0
  3  4  1  0  0  0
  4  5  1  0  0  0
  5  6  1  0  0  0
  5  7  1  0  0  0
  7  8  1  0  0  0
  7 39  1  0  0  0
  8  9  1  0  0  0
  8 27  1  0  0  0
  9 10  1  0  0  0
 10 11  1  0  0  0
 10 12  1  0  0  0
 12 13  1  0  0  0
 13 14  1  0  0  0
 13 26  1  0  0  0
 14 15  1  0  0  0
 15 16  1  0  0  0
 16 17  1  0  0  0
 17 18  1  0  0  0
 18 19  1  0  0  0
 18 25  1  0  0  0
 19 20  1  0  0  0
 20 21  1  0  0  0
 20 24  1  0  0  0
 21 22  1  0  0  0
 21 23  1  0  0  0
 23 51  1  0  0  0
 23 52  1  0  0  0
 24 53  1  0  0  0
 25 54  1  0  0  0
 26 55  1  0  0  0
 27 28  1  0  0  0
 28 29  2  0  0  0
 28 30  1  0  0  0
 30 31  1  0  0  0
 31 32  1  0  0  0
 31 36  1  0  0  0
 32 33  1  0  0  0
 33 34  2  0  0  0
 33 35  1  0  0  0
 35 56  1  0  0  0
 36 37  2  0  0  0
 36 38  1  0  0  0
 38 57  1  0  0  0
 39 40  1  0  0  0
 40 41  2  0  0  0
 40 42  1  0  0  0
 42 43  1  0  0  0
 43 44  1  0  0  0
 43 48  1  0  0  0
 44 45  1  0  0  0
 45 46  2  0  0  0
 45 47  1  0  0  0
 47 58  1  0  0  0
 48 49  2  0  0  0
 48 50  1  0  0  0
 50 59  1  0  0  0
M  END
>  <AUTHOR>
    GENERATED BY OPEN BABEL 2.4.1

>  <CHROM.1>
-179.71925198,75.37983752,71.75332687,164.50495602,-70.63429279,165.33295561
164.74326706,117.53930157,140.46469872,-82.03759333,3.94429032,-171.20129735
-74.55054414,171.27350059,178.70604897,-78.31464701,29.09949683,-86.59415662
-52.28291760,167.18918585,85.40283084,171.36169217,64.43284581,70.46285581
-168.63353489,165.74244075,-136.13057620,-101.59283036,51.73629659,-0.09430984
-0.88571226,20.69778675,-82.58714380,-75.05857400,26.44198504,5.65627375
-110.55391726,-175.22033824,-160.16767718,4.08388175,-2.53332557,3.68414911
0.84023626,1.21335408,-0.52400434

>  <COMPND>
    UNNAMED

>  <MASTER>
        0    0    0    0    0    0    0    0  109    0  109    0

>  <Name>
FB1.pdb

>  <RI>
0

>  <Rbt.Current_Directory>
/cluster/tossine/FB1_39T3/p3/0_clust01

>  <Rbt.Executable>
rbdock/0.1.0

>  <Rbt.Library>
librxdock.so/0.1.0

>  <Rbt.Parameter_File>
/cluster/rxdock/data/scripts/dock.prm

>  <Rbt.Receptor>
rx_3.prm

>  <SCORE>
7.83205

>  <SCORE.INTER>
-9.01222

>  <SCORE.INTER.CONST>
1

>  <SCORE.INTER.POLAR>
-4.46248

>  <SCORE.INTER.REPUL>
0.237379

>  <SCORE.INTER.ROT>
32

>  <SCORE.INTER.VDW>
-32.4267

>  <SCORE.INTER.norm>
-0.180244

>  <SCORE.INTRA>
16.8443

>  <SCORE.INTRA.DIHEDRAL>
32.1151

>  <SCORE.INTRA.DIHEDRAL.0>
47.3121

>  <SCORE.INTRA.POLAR>
0.948027

>  <SCORE.INTRA.POLAR.0>
-1.47808

>  <SCORE.INTRA.REPUL>
0

>  <SCORE.INTRA.REPUL.0>
0

>  <SCORE.INTRA.VDW>
-2.43657

>  <SCORE.INTRA.VDW.0>
-2.78316

>  <SCORE.INTRA.norm>
0.336885

>  <SCORE.RESTR>
0

>  <SCORE.RESTR.CAVITY>
0

>  <SCORE.RESTR.norm>
0

>  <SCORE.SYSTEM>
0

>  <SCORE.SYSTEM.CONST>
0

>  <SCORE.SYSTEM.DIHEDRAL>
0

>  <SCORE.SYSTEM.norm>
0

>  <SCORE.heavy>
50

>  <SCORE.norm>
0.156641

$$$$
