FB1.pdb
  RxDock  10072000333D
librxdock.so/0.1.0
 59 58  0  0  0  0  0  0  0  0999 V2000
    6.8483   -7.9006    9.5386 C   0  0  0  0  0  0
    7.6118   -7.5266    8.2704 C   0  0  0  0  0  0
    6.6735   -6.9826    7.1804 C   0  0  0  0  0  0
    6.1313   -5.5636    7.4842 C   0  0  0  0  0  0
    4.8069   -5.1866    6.7330 C   0  0  0  0  0  0
    3.6723   -6.0923    7.2649 C   0  0  0  0  0  0
    4.4184   -3.6538    6.8649 C   0  0  0  0  0  0
    4.2858   -2.8191    5.5040 C   0  0  0  0  0  0
    3.4581   -3.2778    4.2262 C   0  0  0  0  0  0
    4.3270   -4.0941    3.0861 C   0  0  0  0  0  0
    4.2474   -5.5886    3.3936 C   0  0  0  0  0  0
    3.9106   -3.8375    1.5677 C   0  0  0  0  0  0
    4.9611   -3.5068    0.3820 C   0  0  0  0  0  0
    5.8488   -2.2153    0.3820 C   0  0  0  0  0  0
    5.2467   -0.8825    1.0225 C   0  0  0  0  0  0
    5.9636    0.5243    0.9841 C   0  0  0  0  0  0
    5.9762    1.3402   -0.3356 C   0  0  0  0  0  0
    6.9471    0.8314   -1.4704 C   0  0  0  0  0  0
    6.3823    0.8279   -2.8965 C   0  0  0  0  0  0
    5.4913   -0.3693   -3.3337 C   0  0  0  0  0  0
    6.1371   -1.6922   -3.8421 C   0  0  0  0  0  0
    5.1919   -2.7148   -4.4571 C   0  0  0  0  0  0
    7.2696   -1.4111   -4.7448 N   0  0  0  0  0  0
    4.7638   -0.7429   -2.1357 O   0  0  0  0  0  0
    8.1206    1.6512   -1.4481 O   0  0  0  0  0  0
    5.8921   -4.6021    0.3970 O   0  0  0  0  0  0
    3.7044   -1.5377    5.8683 O   0  0  0  0  0  0
    4.1030   -0.4539    5.1531 C   0  0  0  0  0  0
    4.8725   -0.4568    4.2111 O   0  0  0  0  0  0
    3.3535    0.7494    5.6548 C   0  0  0  0  0  0
    3.1392    0.7192    7.1765 C   0  0  0  0  0  0
    2.0462   -0.2716    7.5975 C   0  0  0  0  0  0
    1.7253   -0.1369    9.0679 C   0  0  0  0  0  0
    2.5442    0.2111    9.9118 O   0  0  0  0  0  0
    0.4519   -0.4339    9.3664 O   0  0  0  0  0  0
    4.4864    0.3045    7.7841 C   0  0  0  0  0  0
    4.7088   -0.8191    8.2090 O   0  0  0  0  0  0
    5.3881    1.2931    7.8566 O   0  0  0  0  0  0
    3.2363   -3.4746    7.7425 O   0  0  0  0  0  0
    3.4383   -3.3823    9.1095 C   0  0  0  0  0  0
    4.5256   -3.2019    9.6422 O   0  0  0  0  0  0
    2.1340   -3.5313    9.9038 C   0  0  0  0  0  0
    1.7285   -4.9923   10.2723 C   0  0  0  0  0  0
    2.6799   -5.8018   11.1723 C   0  0  0  0  0  0
    2.3661   -7.2701   11.1868 C   0  0  0  0  0  0
    1.3609   -7.7802   11.6621 O   0  0  0  0  0  0
    3.3176   -8.0042   10.5901 O   0  0  0  0  0  0
    0.3191   -5.1338   10.8602 C   0  0  0  0  0  0
   -0.5130   -5.8935   10.4050 O   0  0  0  0  0  0
    0.0902   -4.4343   11.9914 O   0  0  0  0  0  0
    7.6959   -2.2916   -5.0301 H   0  0  0  0  0  0
    7.9969   -0.9256   -4.2150 H   0  0  0  0  0  0
    4.0182   -1.2905   -2.4606 H   0  0  0  0  0  0
    8.6199    1.4456   -0.6363 H   0  0  0  0  0  0
    6.5621   -4.4366   -0.2872 H   0  0  0  0  0  0
    0.1992   -0.2944   10.2992 H   0  0  0  0  0  0
    5.0938    2.1470    7.4527 H   0  0  0  0  0  0
    4.0238   -7.3812   10.3172 H   0  0  0  0  0  0
   -0.7626   -4.6288   12.4398 H   0  0  0  0  0  0
  1  2  1  0  0  0
  2  3  1  0  0  0
  3  4  1  0  0  0
  4  5  1  0  0  0
  5  6  1  0  0  0
  5  7  1  0  0  0
  7  8  1  0  0  0
  7 39  1  0  0  0
  8  9  1  0  0  0
  8 27  1  0  0  0
  9 10  1  0  0  0
 10 11  1  0  0  0
 10 12  1  0  0  0
 12 13  1  0  0  0
 13 14  1  0  0  0
 13 26  1  0  0  0
 14 15  1  0  0  0
 15 16  1  0  0  0
 16 17  1  0  0  0
 17 18  1  0  0  0
 18 19  1  0  0  0
 18 25  1  0  0  0
 19 20  1  0  0  0
 20 21  1  0  0  0
 20 24  1  0  0  0
 21 22  1  0  0  0
 21 23  1  0  0  0
 23 51  1  0  0  0
 23 52  1  0  0  0
 24 53  1  0  0  0
 25 54  1  0  0  0
 26 55  1  0  0  0
 27 28  1  0  0  0
 28 29  2  0  0  0
 28 30  1  0  0  0
 30 31  1  0  0  0
 31 32  1  0  0  0
 31 36  1  0  0  0
 32 33  1  0  0  0
 33 34  2  0  0  0
 33 35  1  0  0  0
 35 56  1  0  0  0
 36 37  2  0  0  0
 36 38  1  0  0  0
 38 57  1  0  0  0
 39 40  1  0  0  0
 40 41  2  0  0  0
 40 42  1  0  0  0
 42 43  1  0  0  0
 43 44  1  0  0  0
 43 48  1  0  0  0
 44 45  1  0  0  0
 45 46  2  0  0  0
 45 47  1  0  0  0
 47 58  1  0  0  0
 48 49  2  0  0  0
 48 50  1  0  0  0
 50 59  1  0  0  0
M  END
>  <AUTHOR>
    GENERATED BY OPEN BABEL 2.4.1

>  <CHROM.1>
72.14947177,-158.11498082,66.39724318,121.01927789,48.95571459,85.73181934
-93.22243106,146.31284982,90.86527273,132.28421414,-63.11965843,-33.11984935
-178.49846422,-174.36640476,75.29972349,-74.28293174,137.21010055,-81.83741000
69.80209172,-83.33108465,-170.34218532,162.94408251,177.65089330,2.20799433
37.00064231,-75.22245850,-171.98391740,-103.42423170,-30.45814603,-175.82799998
-4.04110697,13.48594978,87.77143709,61.81800914,-166.05103066,126.00906801
-67.24536006,2.42633422,-171.22994306,4.19789147,-2.78604080,5.24517175,-2.38860620
1.19433123,-0.46084439

>  <COMPND>
    UNNAMED

>  <MASTER>
        0    0    0    0    0    0    0    0  109    0  109    0

>  <Name>
FB1.pdb

>  <RI>
0

>  <Rbt.Current_Directory>
/cluster/tossine/FB1_39T3/p3/0_clust01

>  <Rbt.Executable>
rbdock/0.1.0

>  <Rbt.Library>
librxdock.so/0.1.0

>  <Rbt.Parameter_File>
/cluster/rxdock/data/scripts/dock.prm

>  <Rbt.Receptor>
rx_3.prm

>  <SCORE>
2.45954

>  <SCORE.INTER>
-5.78856

>  <SCORE.INTER.CONST>
1

>  <SCORE.INTER.POLAR>
-3.86288

>  <SCORE.INTER.REPUL>
0.427741

>  <SCORE.INTER.ROT>
32

>  <SCORE.INTER.VDW>
-32.1935

>  <SCORE.INTER.norm>
-0.115771

>  <SCORE.INTRA>
8.2481

>  <SCORE.INTRA.DIHEDRAL>
11.2487

>  <SCORE.INTRA.DIHEDRAL.0>
47.3121

>  <SCORE.INTRA.POLAR>
1.47808

>  <SCORE.INTRA.POLAR.0>
-1.47808

>  <SCORE.INTRA.REPUL>
0

>  <SCORE.INTRA.REPUL.0>
0

>  <SCORE.INTRA.VDW>
-2.4017

>  <SCORE.INTRA.VDW.0>
-2.78316

>  <SCORE.INTRA.norm>
0.164962

>  <SCORE.RESTR>
0

>  <SCORE.RESTR.CAVITY>
0

>  <SCORE.RESTR.norm>
0

>  <SCORE.SYSTEM>
0

>  <SCORE.SYSTEM.CONST>
0

>  <SCORE.SYSTEM.DIHEDRAL>
0

>  <SCORE.SYSTEM.norm>
0

>  <SCORE.heavy>
50

>  <SCORE.norm>
0.0491908

$$$$
