FB1.pdb
  RxDock  10072001023D
librxdock.so/0.1.0
 59 58  0  0  0  0  0  0  0  0999 V2000
    7.1956   -4.8045    7.3398 C   0  0  0  0  0  0
    6.7029   -5.8574    8.3298 C   0  0  0  0  0  0
    5.7179   -6.8391    7.6738 C   0  0  0  0  0  0
    4.3430   -6.2063    7.3439 C   0  0  0  0  0  0
    4.3624   -5.1481    6.1862 C   0  0  0  0  0  0
    4.8223   -5.8547    4.8902 C   0  0  0  0  0  0
    2.9696   -4.4189    5.9714 C   0  0  0  0  0  0
    2.9595   -3.1450    5.0001 C   0  0  0  0  0  0
    2.0510   -2.9894    3.7044 C   0  0  0  0  0  0
    1.9784   -4.3235    2.7368 C   0  0  0  0  0  0
    0.9619   -4.0626    1.6264 C   0  0  0  0  0  0
    3.3583   -4.8037    2.0966 C   0  0  0  0  0  0
    4.1468   -4.0018    0.9331 C   0  0  0  0  0  0
    3.5840   -3.8661   -0.5233 C   0  0  0  0  0  0
    4.3365   -2.8899   -1.5381 C   0  0  0  0  0  0
    5.8746   -2.9826   -1.8849 C   0  0  0  0  0  0
    6.9256   -2.6174   -0.8034 C   0  0  0  0  0  0
    7.1387   -1.0805   -0.5173 C   0  0  0  0  0  0
    5.9313   -0.3203    0.0455 C   0  0  0  0  0  0
    5.9865    1.2335    0.0746 C   0  0  0  0  0  0
    6.2010    2.0424   -1.2388 C   0  0  0  0  0  0
    7.5861    1.9625   -1.8652 C   0  0  0  0  0  0
    5.1552    1.7234   -2.2293 N   0  0  0  0  0  0
    4.6797    1.6388    0.5560 O   0  0  0  0  0  0
    8.2278   -0.9494    0.4028 O   0  0  0  0  0  0
    4.2542   -2.6538    1.4209 O   0  0  0  0  0  0
    2.6032   -2.0052    5.8284 O   0  0  0  0  0  0
    3.3439   -1.8011    6.9486 C   0  0  0  0  0  0
    4.1283   -2.5868    7.4454 O   0  0  0  0  0  0
    3.1106   -0.3935    7.4237 C   0  0  0  0  0  0
    4.0564    0.0082    8.5667 C   0  0  0  0  0  0
    5.5045   -0.4311    8.3144 C   0  0  0  0  0  0
    5.9794    0.0141    6.9508 C   0  0  0  0  0  0
    5.3144    0.7161    6.1967 O   0  0  0  0  0  0
    7.2057   -0.4317    6.6402 O   0  0  0  0  0  0
    3.9803    1.5384    8.6592 C   0  0  0  0  0  0
    4.9556    2.2432    8.8703 O   0  0  0  0  0  0
    2.7430    2.0389    8.5381 O   0  0  0  0  0  0
    1.9047   -5.3905    5.6223 O   0  0  0  0  0  0
    1.2467   -6.0448    6.6504 C   0  0  0  0  0  0
    1.0261   -7.2485    6.6812 O   0  0  0  0  0  0
    0.8147   -5.0879    7.7693 C   0  0  0  0  0  0
    1.6212   -5.1945    9.1008 C   0  0  0  0  0  0
    2.6539   -4.0955    9.4108 C   0  0  0  0  0  0
    3.7140   -4.5421   10.3758 C   0  0  0  0  0  0
    3.5346   -5.2568   11.3523 O   0  0  0  0  0  0
    4.9319   -4.0838   10.0485 O   0  0  0  0  0  0
    0.7586   -5.3726   10.3563 C   0  0  0  0  0  0
    0.7409   -6.4000   11.0050 O   0  0  0  0  0  0
    0.0934   -4.2711   10.7632 O   0  0  0  0  0  0
    4.2393    1.8531   -1.8016 H   0  0  0  0  0  0
    5.2052    0.7256   -2.4472 H   0  0  0  0  0  0
    4.6681    1.3659    1.4977 H   0  0  0  0  0  0
    8.5090   -0.0159    0.4103 H   0  0  0  0  0  0
    3.3551   -2.3080    1.5495 H   0  0  0  0  0  0
    7.6613   -0.9254    7.3489 H   0  0  0  0  0  0
    2.6916    3.0249    8.6010 H   0  0  0  0  0  0
    4.8166   -3.5217    9.2535 H   0  0  0  0  0  0
    0.2137   -3.4756   10.1985 H   0  0  0  0  0  0
  1  2  1  0  0  0
  2  3  1  0  0  0
  3  4  1  0  0  0
  4  5  1  0  0  0
  5  6  1  0  0  0
  5  7  1  0  0  0
  7  8  1  0  0  0
  7 39  1  0  0  0
  8  9  1  0  0  0
  8 27  1  0  0  0
  9 10  1  0  0  0
 10 11  1  0  0  0
 10 12  1  0  0  0
 12 13  1  0  0  0
 13 14  1  0  0  0
 13 26  1  0  0  0
 14 15  1  0  0  0
 15 16  1  0  0  0
 16 17  1  0  0  0
 17 18  1  0  0  0
 18 19  1  0  0  0
 18 25  1  0  0  0
 19 20  1  0  0  0
 20 21  1  0  0  0
 20 24  1  0  0  0
 21 22  1  0  0  0
 21 23  1  0  0  0
 23 51  1  0  0  0
 23 52  1  0  0  0
 24 53  1  0  0  0
 25 54  1  0  0  0
 26 55  1  0  0  0
 27 28  1  0  0  0
 28 29  2  0  0  0
 28 30  1  0  0  0
 30 31  1  0  0  0
 31 32  1  0  0  0
 31 36  1  0  0  0
 32 33  1  0  0  0
 33 34  2  0  0  0
 33 35  1  0  0  0
 35 56  1  0  0  0
 36 37  2  0  0  0
 36 38  1  0  0  0
 38 57  1  0  0  0
 39 40  1  0  0  0
 40 41  2  0  0  0
 40 42  1  0  0  0
 42 43  1  0  0  0
 43 44  1  0  0  0
 43 48  1  0  0  0
 44 45  1  0  0  0
 45 46  2  0  0  0
 45 47  1  0  0  0
 47 58  1  0  0  0
 48 49  2  0  0  0
 48 50  1  0  0  0
 50 59  1  0  0  0
M  END
>  <AUTHOR>
    GENERATED BY OPEN BABEL 2.4.1

>  <CHROM.1>
-70.74023399,69.44774482,61.96546152,169.25533101,122.90983010,84.93742137
-44.18942224,53.32153910,174.21555161,-70.53368865,-67.76419012,171.71502510
-60.74227646,54.97393905,-69.05337848,-76.19297598,63.41455595,-167.77737367
165.97191328,58.04283366,-70.77297496,69.73172589,53.23565471,-12.80277752
-171.63868043,43.95346846,51.25051098,-140.37859015,4.81634686,-4.33596402
179.77229892,-133.39390930,-107.81954431,104.50351466,-157.38749987,111.49696486
-38.82867869,2.33591142,1.49041875,4.08214883,-2.66730632,5.11133752,-2.33832894
-1.16264239,-1.90612317

>  <COMPND>
    UNNAMED

>  <MASTER>
        0    0    0    0    0    0    0    0  109    0  109    0

>  <Name>
FB1.pdb

>  <RI>
0

>  <Rbt.Current_Directory>
/cluster/tossine/FB1_39T3/p3/0_clust01

>  <Rbt.Executable>
rbdock/0.1.0

>  <Rbt.Library>
librxdock.so/0.1.0

>  <Rbt.Parameter_File>
/cluster/rxdock/data/scripts/dock.prm

>  <Rbt.Receptor>
rx_4.prm

>  <SCORE>
-4.01323

>  <SCORE.INTER>
-8.12415

>  <SCORE.INTER.CONST>
1

>  <SCORE.INTER.POLAR>
-2.73314

>  <SCORE.INTER.REPUL>
0.245883

>  <SCORE.INTER.ROT>
32

>  <SCORE.INTER.VDW>
-37.4609

>  <SCORE.INTER.norm>
-0.162483

>  <SCORE.INTRA>
4.11093

>  <SCORE.INTRA.DIHEDRAL>
0.0691457

>  <SCORE.INTRA.DIHEDRAL.0>
47.3121

>  <SCORE.INTRA.POLAR>
0.548153

>  <SCORE.INTRA.POLAR.0>
-1.47808

>  <SCORE.INTRA.REPUL>
0

>  <SCORE.INTRA.REPUL.0>
0

>  <SCORE.INTRA.VDW>
2.21263

>  <SCORE.INTRA.VDW.0>
-2.78316

>  <SCORE.INTRA.norm>
0.0822185

>  <SCORE.RESTR>
0

>  <SCORE.RESTR.CAVITY>
0

>  <SCORE.RESTR.norm>
0

>  <SCORE.SYSTEM>
0

>  <SCORE.SYSTEM.CONST>
0

>  <SCORE.SYSTEM.DIHEDRAL>
0

>  <SCORE.SYSTEM.norm>
0

>  <SCORE.heavy>
50

>  <SCORE.norm>
-0.0802646

$$$$
