FB1.pdb
  RxDock  10062023173D
librxdock.so/0.1.0
 59 58  0  0  0  0  0  0  0  0999 V2000
    7.0122   -7.4867    7.5863 C   0  0  0  0  0  0
    6.9366   -6.9101    8.9981 C   0  0  0  0  0  0
    5.6935   -6.0248    9.1858 C   0  0  0  0  0  0
    4.3922   -6.8304    9.4252 C   0  0  0  0  0  0
    3.0856   -5.9667    9.5102 C   0  0  0  0  0  0
    3.2955   -4.8730   10.5828 C   0  0  0  0  0  0
    2.6586   -5.3261    8.1226 C   0  0  0  0  0  0
    3.8195   -5.0902    7.0444 C   0  0  0  0  0  0
    3.6212   -5.1109    5.4669 C   0  0  0  0  0  0
    4.8015   -5.8965    4.6237 C   0  0  0  0  0  0
    4.6714   -7.3954    4.8892 C   0  0  0  0  0  0
    4.8361   -5.6328    3.0508 C   0  0  0  0  0  0
    3.5260   -5.6364    2.1009 C   0  0  0  0  0  0
    2.3089   -4.6797    2.3448 C   0  0  0  0  0  0
    1.6962   -3.8996    1.0936 C   0  0  0  0  0  0
    1.0076   -4.6028   -0.1416 C   0  0  0  0  0  0
    1.8850   -5.3315   -1.1936 C   0  0  0  0  0  0
    1.1225   -6.0409   -2.3787 C   0  0  0  0  0  0
    0.2622   -7.2540   -2.0036 C   0  0  0  0  0  0
   -0.2791   -8.1564   -3.1485 C   0  0  0  0  0  0
   -1.2212   -9.3556   -2.8326 C   0  0  0  0  0  0
   -2.4981   -9.0315   -2.0698 C   0  0  0  0  0  0
   -1.5184  -10.1265   -4.0549 N   0  0  0  0  0  0
   -1.0699   -7.2656   -3.9761 O   0  0  0  0  0  0
    0.2846   -5.0671   -3.0106 O   0  0  0  0  0  0
    4.0164   -5.2940    0.7937 O   0  0  0  0  0  0
    4.3692   -3.7734    7.3207 O   0  0  0  0  0  0
    3.5390   -2.7111    7.1546 C   0  0  0  0  0  0
    2.3496   -2.6813    7.4071 O   0  0  0  0  0  0
    4.3569   -1.5346    6.6983 C   0  0  0  0  0  0
    5.4254   -1.1249    7.7245 C   0  0  0  0  0  0
    5.7691    0.3684    7.6521 C   0  0  0  0  0  0
    4.5515    1.1916    7.3013 C   0  0  0  0  0  0
    4.3440    1.6539    6.1847 O   0  0  0  0  0  0
    3.7118    1.3696    8.3319 O   0  0  0  0  0  0
    4.8388   -1.4628    9.1020 C   0  0  0  0  0  0
    4.0310   -0.7486    9.6763 O   0  0  0  0  0  0
    5.3239   -2.5858    9.6494 O   0  0  0  0  0  0
    1.4964   -6.0392    7.5388 O   0  0  0  0  0  0
    0.2443   -5.8193    8.0883 C   0  0  0  0  0  0
   -0.7809   -5.6526    7.4405 O   0  0  0  0  0  0
    0.2740   -5.8063    9.6223 C   0  0  0  0  0  0
   -0.0797   -7.1573   10.3181 C   0  0  0  0  0  0
   -0.9665   -8.1554    9.5514 C   0  0  0  0  0  0
   -1.3012   -9.3794   10.3541 C   0  0  0  0  0  0
   -1.0105   -9.5645   11.5279 O   0  0  0  0  0  0
   -1.9935  -10.2843    9.6454 O   0  0  0  0  0  0
    1.1301   -7.9388   10.8455 C   0  0  0  0  0  0
    1.8006   -8.6701   10.1439 O   0  0  0  0  0  0
    1.4737   -7.6805   12.1248 O   0  0  0  0  0  0
   -2.0597  -10.9530   -3.8052 H   0  0  0  0  0  0
   -0.6409  -10.4906   -4.4329 H   0  0  0  0  0  0
   -1.0476   -7.6726   -4.8678 H   0  0  0  0  0  0
   -0.1142   -5.4758   -3.8008 H   0  0  0  0  0  0
    4.7480   -5.8968    0.5796 H   0  0  0  0  0  0
    3.9050    0.8326    9.1243 H   0  0  0  0  0  0
    4.9579   -2.7972   10.5439 H   0  0  0  0  0  0
   -2.1657  -11.0400   10.2459 H   0  0  0  0  0  0
    2.2352   -8.1990   12.4676 H   0  0  0  0  0  0
  1  2  1  0  0  0
  2  3  1  0  0  0
  3  4  1  0  0  0
  4  5  1  0  0  0
  5  6  1  0  0  0
  5  7  1  0  0  0
  7  8  1  0  0  0
  7 39  1  0  0  0
  8  9  1  0  0  0
  8 27  1  0  0  0
  9 10  1  0  0  0
 10 11  1  0  0  0
 10 12  1  0  0  0
 12 13  1  0  0  0
 13 14  1  0  0  0
 13 26  1  0  0  0
 14 15  1  0  0  0
 15 16  1  0  0  0
 16 17  1  0  0  0
 17 18  1  0  0  0
 18 19  1  0  0  0
 18 25  1  0  0  0
 19 20  1  0  0  0
 20 21  1  0  0  0
 20 24  1  0  0  0
 21 22  1  0  0  0
 21 23  1  0  0  0
 23 51  1  0  0  0
 23 52  1  0  0  0
 24 53  1  0  0  0
 25 54  1  0  0  0
 26 55  1  0  0  0
 27 28  1  0  0  0
 28 29  2  0  0  0
 28 30  1  0  0  0
 30 31  1  0  0  0
 31 32  1  0  0  0
 31 36  1  0  0  0
 32 33  1  0  0  0
 33 34  2  0  0  0
 33 35  1  0  0  0
 35 56  1  0  0  0
 36 37  2  0  0  0
 36 38  1  0  0  0
 38 57  1  0  0  0
 39 40  1  0  0  0
 40 41  2  0  0  0
 40 42  1  0  0  0
 42 43  1  0  0  0
 43 44  1  0  0  0
 43 48  1  0  0  0
 44 45  1  0  0  0
 45 46  2  0  0  0
 45 47  1  0  0  0
 47 58  1  0  0  0
 48 49  2  0  0  0
 48 50  1  0  0  0
 50 59  1  0  0  0
M  END
>  <AUTHOR>
    GENERATED BY OPEN BABEL 2.4.1

>  <CHROM.1>
79.20837851,-175.47007973,-53.91025590,-25.17135634,150.59536088,75.07124716
-137.77074529,-64.19239932,70.71547630,-45.00845585,58.03442076,133.89481614
52.58991014,63.76343502,-74.48617511,178.49212270,-67.28010747,-168.02944533
173.98955016,-176.64662622,56.41344124,153.62839614,174.54704277,36.60203155
-61.37067083,-151.65466028,34.66757087,-79.98482017,-102.82361304,-9.81998564
179.04090509,136.92437494,-95.45149784,-25.38870339,-176.67157328,-83.43592302
5.35380475,-179.92214058,178.52927378,2.31869103,-5.38417490,5.60475052,-1.10609110
-0.97177459,-1.40756545

>  <COMPND>
    UNNAMED

>  <MASTER>
        0    0    0    0    0    0    0    0  109    0  109    0

>  <Name>
FB1.pdb

>  <RI>
0

>  <Rbt.Current_Directory>
/cluster/tossine/FB1_39T3/p3/0_clust01

>  <Rbt.Executable>
rbdock/0.1.0

>  <Rbt.Library>
librxdock.so/0.1.0

>  <Rbt.Parameter_File>
/cluster/rxdock/data/scripts/dock.prm

>  <Rbt.Receptor>
rx_1.prm

>  <SCORE>
13.461

>  <SCORE.INTER>
0.478527

>  <SCORE.INTER.CONST>
1

>  <SCORE.INTER.POLAR>
-2.49061

>  <SCORE.INTER.REPUL>
0.999009

>  <SCORE.INTER.ROT>
32

>  <SCORE.INTER.VDW>
-33.4484

>  <SCORE.INTER.norm>
0.00957054

>  <SCORE.INTRA>
12.9825

>  <SCORE.INTRA.DIHEDRAL>
18.3853

>  <SCORE.INTRA.DIHEDRAL.0>
47.3121

>  <SCORE.INTRA.POLAR>
0.180053

>  <SCORE.INTRA.POLAR.0>
-1.47808

>  <SCORE.INTRA.REPUL>
0

>  <SCORE.INTRA.REPUL.0>
0

>  <SCORE.INTRA.VDW>
3.17767

>  <SCORE.INTRA.VDW.0>
-2.78316

>  <SCORE.INTRA.norm>
0.25965

>  <SCORE.RESTR>
0

>  <SCORE.RESTR.CAVITY>
0

>  <SCORE.RESTR.norm>
0

>  <SCORE.SYSTEM>
0

>  <SCORE.SYSTEM.CONST>
0

>  <SCORE.SYSTEM.DIHEDRAL>
0

>  <SCORE.SYSTEM.norm>
0

>  <SCORE.heavy>
50

>  <SCORE.norm>
0.26922

$$$$
