AFB1t.pdb
  RxDock  09122020523D
librxdock.so/0.1.0
 23 27  0  0  0  0  0  0  0  0999 V2000
   -0.3969    1.6713    0.7945 O   0  0  0  0  0  0
   -0.4965    1.3849   -0.3839 C   0  0  0  0  0  0
   -0.4343    0.0333   -0.9402 C   0  0  0  0  0  0
    0.1237   -1.1778   -0.3585 C   0  0  0  0  0  0
    0.7509   -1.2038    0.6952 O   0  0  0  0  0  0
   -0.0635   -2.3250   -1.1274 O   0  0  0  0  0  0
   -0.7117   -2.2955   -2.3824 C   0  0  0  0  0  0
   -0.9251   -3.5091   -3.0083 C   0  0  0  0  0  0
   -1.5806   -3.5350   -4.2222 C   0  0  0  0  0  0
   -1.7951   -4.7937   -4.7180 O   0  0  0  0  0  0
   -1.4623   -5.6778   -3.6163 C   0  0  0  0  0  0
   -0.6342   -6.7775   -4.0572 O   0  0  0  0  0  0
    0.5977   -6.5236   -3.4910 C   0  0  0  0  0  0
    0.6715   -5.4736   -2.6739 C   0  0  0  0  0  0
   -0.6847   -4.8908   -2.5329 C   0  0  0  0  0  0
   -2.0306   -2.3854   -4.8467 C   0  0  0  0  0  0
   -1.8603   -1.1527   -4.1989 C   0  0  0  0  0  0
   -2.3483    0.0294   -4.6935 O   0  0  0  0  0  0
   -3.6651    0.0397   -5.2332 C   0  0  0  0  0  0
   -1.1803   -1.0951   -2.9536 C   0  0  0  0  0  0
   -0.9957    0.1201   -2.1553 C   0  0  0  0  0  0
   -1.4205    1.5071   -2.5180 C   0  0  0  0  0  0
   -0.7129    2.3774   -1.4862 C   0  0  0  0  0  0
  1  2  2  0  0  0
  2  3  1  0  0  0
  2 23  1  0  0  0
  3  4  1  0  0  0
  3 21  2  0  0  0
  4  5  2  0  0  0
  4  6  1  0  0  0
  6  7  1  0  0  0
  7  8  1  0  0  0
  7 20  2  0  0  0
  8  9  2  0  0  0
  8 15  1  0  0  0
  9 10  1  0  0  0
  9 16  1  0  0  0
 10 11  1  0  0  0
 11 12  1  0  0  0
 11 15  1  0  0  0
 12 13  1  0  0  0
 13 14  2  0  0  0
 14 15  1  0  0  0
 16 17  2  0  0  0
 17 18  1  0  0  0
 17 20  1  0  0  0
 18 19  1  0  0  0
 20 21  1  0  0  0
 21 22  1  0  0  0
 22 23  1  0  0  0
M  END
>  <AUTHOR>
    GENERATED BY OPEN BABEL 3.1.0

>  <CHROM.1>
42.94397841,-0.93347166,-1.98215421,-2.61120092,-1.57543473,0.98528595,-2.74685613

>  <COMPND>
    UNNAMED

>  <MASTER>
        0    0    0    0    0    0    0    0   35    0   35    0

>  <Name>
AFB1t.pdb

>  <RI>
0

>  <Rbt.Current_Directory>
/home/fc/tossine/AF_AB3/p3/0_clust01

>  <Rbt.Executable>
rbdock/0.1.0

>  <Rbt.Library>
librxdock.so/0.1.0

>  <Rbt.Parameter_File>
/cluster/rxdock/data/scripts/dock.prm

>  <Rbt.Receptor>
rx_4.prm

>  <SCORE>
-2.50993

>  <SCORE.INTER>
-2.23329

>  <SCORE.INTER.CONST>
1

>  <SCORE.INTER.POLAR>
0

>  <SCORE.INTER.REPUL>
0.477335

>  <SCORE.INTER.ROT>
1

>  <SCORE.INTER.VDW>
-11.02

>  <SCORE.INTER.norm>
-0.0970996

>  <SCORE.INTRA>
-0.276637

>  <SCORE.INTRA.DIHEDRAL>
2.19137

>  <SCORE.INTRA.DIHEDRAL.0>
0.0968638

>  <SCORE.INTRA.POLAR>
0

>  <SCORE.INTRA.POLAR.0>
0

>  <SCORE.INTRA.REPUL>
0

>  <SCORE.INTRA.REPUL.0>
0

>  <SCORE.INTRA.VDW>
-1.37232

>  <SCORE.INTRA.VDW.0>
2.11718

>  <SCORE.INTRA.norm>
-0.0120277

>  <SCORE.RESTR>
0

>  <SCORE.RESTR.CAVITY>
0

>  <SCORE.RESTR.norm>
0

>  <SCORE.SYSTEM>
0

>  <SCORE.SYSTEM.CONST>
0

>  <SCORE.SYSTEM.DIHEDRAL>
0

>  <SCORE.SYSTEM.norm>
0

>  <SCORE.heavy>
23

>  <SCORE.norm>
-0.109127

$$$$
