AFB1t.pdb
  RxDock  09122020293D
librxdock.so/0.1.0
 23 27  0  0  0  0  0  0  0  0999 V2000
   -5.7832  -13.5500   -0.9496 O   0  0  0  0  0  0
   -6.1878  -12.8921   -0.0093 C   0  0  0  0  0  0
   -5.5008  -12.7246    1.2713 C   0  0  0  0  0  0
   -4.4608  -13.5448    1.8734 C   0  0  0  0  0  0
   -4.0755  -14.6114    1.4064 O   0  0  0  0  0  0
   -3.9584  -13.0474    3.0745 O   0  0  0  0  0  0
   -4.4510  -11.8628    3.6663 C   0  0  0  0  0  0
   -3.8099  -11.4162    4.8063 C   0  0  0  0  0  0
   -4.2352  -10.2478    5.4044 C   0  0  0  0  0  0
   -3.4875   -9.8662    6.4867 O   0  0  0  0  0  0
   -2.3256  -10.7349    6.4477 C   0  0  0  0  0  0
   -2.0331  -11.2795    7.7544 O   0  0  0  0  0  0
   -2.3420  -12.6190    7.6412 C   0  0  0  0  0  0
   -2.7045  -13.0456    6.4320 C   0  0  0  0  0  0
   -2.5891  -11.9147    5.4799 C   0  0  0  0  0  0
   -5.2906   -9.5026    4.9092 C   0  0  0  0  0  0
   -5.9188   -9.9220    3.7269 C   0  0  0  0  0  0
   -6.9130   -9.2069    3.1103 O   0  0  0  0  0  0
   -8.2397   -9.3318    3.6096 C   0  0  0  0  0  0
   -5.5084  -11.1259    3.0956 C   0  0  0  0  0  0
   -6.0448  -11.6328    1.8294 C   0  0  0  0  0  0
   -7.1422  -11.0298    1.0123 C   0  0  0  0  0  0
   -7.4725  -12.1199   -0.0003 C   0  0  0  0  0  0
  1  2  2  0  0  0
  2  3  1  0  0  0
  2 23  1  0  0  0
  3  4  1  0  0  0
  3 21  2  0  0  0
  4  5  2  0  0  0
  4  6  1  0  0  0
  6  7  1  0  0  0
  7  8  1  0  0  0
  7 20  2  0  0  0
  8  9  2  0  0  0
  8 15  1  0  0  0
  9 10  1  0  0  0
  9 16  1  0  0  0
 10 11  1  0  0  0
 11 12  1  0  0  0
 11 15  1  0  0  0
 12 13  1  0  0  0
 13 14  2  0  0  0
 14 15  1  0  0  0
 16 17  2  0  0  0
 17 18  1  0  0  0
 17 20  1  0  0  0
 18 19  1  0  0  0
 20 21  1  0  0  0
 21 22  1  0  0  0
 22 23  1  0  0  0
M  END
>  <AUTHOR>
    GENERATED BY OPEN BABEL 3.1.0

>  <CHROM.1>
-81.36547191,-4.80774582,-11.61866041,3.56490249,-2.30121989,-0.72404423
0.86437491

>  <COMPND>
    UNNAMED

>  <MASTER>
        0    0    0    0    0    0    0    0   35    0   35    0

>  <Name>
AFB1t.pdb

>  <RI>
0

>  <Rbt.Current_Directory>
/home/fc/tossine/AF_AB3/p3/0_clust01

>  <Rbt.Executable>
rbdock/0.1.0

>  <Rbt.Library>
librxdock.so/0.1.0

>  <Rbt.Parameter_File>
/cluster/rxdock/data/scripts/dock.prm

>  <Rbt.Receptor>
rx_1.prm

>  <SCORE>
-1.67664

>  <SCORE.INTER>
-1.97908

>  <SCORE.INTER.CONST>
1

>  <SCORE.INTER.POLAR>
0

>  <SCORE.INTER.REPUL>
0.428541

>  <SCORE.INTER.ROT>
1

>  <SCORE.INTER.VDW>
-10.5218

>  <SCORE.INTER.norm>
-0.0860469

>  <SCORE.INTRA>
0.215529

>  <SCORE.INTRA.DIHEDRAL>
4.57557

>  <SCORE.INTRA.DIHEDRAL.0>
0.0968638

>  <SCORE.INTRA.POLAR>
0

>  <SCORE.INTRA.POLAR.0>
0

>  <SCORE.INTRA.REPUL>
0

>  <SCORE.INTRA.REPUL.0>
0

>  <SCORE.INTRA.VDW>
-2.07226

>  <SCORE.INTRA.VDW.0>
2.11718

>  <SCORE.INTRA.norm>
0.00937082

>  <SCORE.RESTR>
0.0869047

>  <SCORE.RESTR.CAVITY>
0.0869047

>  <SCORE.RESTR.norm>
0.00377846

>  <SCORE.SYSTEM>
0

>  <SCORE.SYSTEM.CONST>
0

>  <SCORE.SYSTEM.DIHEDRAL>
0

>  <SCORE.SYSTEM.norm>
0

>  <SCORE.heavy>
23

>  <SCORE.norm>
-0.0728976

$$$$
