AFB1t.pdb
  RxDock  09122020203D
librxdock.so/0.1.0
 23 27  0  0  0  0  0  0  0  0999 V2000
   -2.8662   11.1440   11.2626 O   0  0  0  0  0  0
   -2.7608   10.1018   10.6436 C   0  0  0  0  0  0
   -3.5169    9.7436    9.4436 C   0  0  0  0  0  0
   -4.7706   10.2899    8.9471 C   0  0  0  0  0  0
   -5.4562   11.0979    9.5646 O   0  0  0  0  0  0
   -5.1736    9.7785    7.7149 O   0  0  0  0  0  0
   -4.4359    8.7863    7.0311 C   0  0  0  0  0  0
   -4.8814    8.4269    5.7732 C   0  0  0  0  0  0
   -4.1775    7.4834    5.0534 C   0  0  0  0  0  0
   -4.6704    7.2531    3.7963 O   0  0  0  0  0  0
   -5.6396    8.3132    3.5883 C   0  0  0  0  0  0
   -6.8701    7.7979    3.0315 O   0  0  0  0  0  0
   -7.7857    7.9249    4.0552 C   0  0  0  0  0  0
   -7.3588    8.5294    5.1633 C   0  0  0  0  0  0
   -5.9677    8.9922    4.9407 C   0  0  0  0  0  0
   -3.0382    6.8725    5.5465 C   0  0  0  0  0  0
   -2.5510    7.2630    6.8028 C   0  0  0  0  0  0
   -1.3843    6.7818    7.3387 O   0  0  0  0  0  0
   -1.1334    5.3834    7.2566 C   0  0  0  0  0  0
   -3.2608    8.2245    7.5700 C   0  0  0  0  0  0
   -2.8204    8.7550    8.8632 C   0  0  0  0  0  0
   -1.6042    8.3510    9.6336 C   0  0  0  0  0  0
   -1.8192    8.9911   10.9998 C   0  0  0  0  0  0
  1  2  2  0  0  0
  2  3  1  0  0  0
  2 23  1  0  0  0
  3  4  1  0  0  0
  3 21  2  0  0  0
  4  5  2  0  0  0
  4  6  1  0  0  0
  6  7  1  0  0  0
  7  8  1  0  0  0
  7 20  2  0  0  0
  8  9  2  0  0  0
  8 15  1  0  0  0
  9 10  1  0  0  0
  9 16  1  0  0  0
 10 11  1  0  0  0
 11 12  1  0  0  0
 11 15  1  0  0  0
 12 13  1  0  0  0
 13 14  2  0  0  0
 14 15  1  0  0  0
 16 17  2  0  0  0
 17 18  1  0  0  0
 17 20  1  0  0  0
 18 19  1  0  0  0
 20 21  1  0  0  0
 21 22  1  0  0  0
 22 23  1  0  0  0
M  END
>  <AUTHOR>
    GENERATED BY OPEN BABEL 3.1.0

>  <CHROM.1>
-44.86252825,-4.07994955,8.53264610,7.13276092,0.96994899,-0.55877928,0.95826465

>  <COMPND>
    UNNAMED

>  <MASTER>
        0    0    0    0    0    0    0    0   35    0   35    0

>  <Name>
AFB1t.pdb

>  <RI>
0

>  <Rbt.Current_Directory>
/home/fc/tossine/AF_AB3/p3/0_clust01

>  <Rbt.Executable>
rbdock/0.1.0

>  <Rbt.Library>
librxdock.so/0.1.0

>  <Rbt.Parameter_File>
/cluster/rxdock/data/scripts/dock.prm

>  <Rbt.Receptor>
rx_0.prm

>  <SCORE>
-3.04844

>  <SCORE.INTER>
-2.82399

>  <SCORE.INTER.CONST>
1

>  <SCORE.INTER.POLAR>
0

>  <SCORE.INTER.REPUL>
0.0198196

>  <SCORE.INTER.ROT>
1

>  <SCORE.INTER.VDW>
-9.32309

>  <SCORE.INTER.norm>
-0.122782

>  <SCORE.INTRA>
-0.310806

>  <SCORE.INTRA.DIHEDRAL>
2.23125

>  <SCORE.INTRA.DIHEDRAL.0>
0.0968638

>  <SCORE.INTRA.POLAR>
0

>  <SCORE.INTRA.POLAR.0>
0

>  <SCORE.INTRA.REPUL>
0

>  <SCORE.INTRA.REPUL.0>
0

>  <SCORE.INTRA.VDW>
-1.42643

>  <SCORE.INTRA.VDW.0>
2.11718

>  <SCORE.INTRA.norm>
-0.0135133

>  <SCORE.RESTR>
0.0863572

>  <SCORE.RESTR.CAVITY>
0.0863572

>  <SCORE.RESTR.norm>
0.00375466

>  <SCORE.SYSTEM>
0

>  <SCORE.SYSTEM.CONST>
0

>  <SCORE.SYSTEM.DIHEDRAL>
0

>  <SCORE.SYSTEM.norm>
0

>  <SCORE.heavy>
23

>  <SCORE.norm>
-0.132541

$$$$
