AFB1t.pdb
  RxDock  09122020463D
librxdock.so/0.1.0
 23 27  0  0  0  0  0  0  0  0999 V2000
    0.0974    4.6911   -9.4624 O   0  0  0  0  0  0
    1.1488    5.1922   -9.1100 C   0  0  0  0  0  0
    1.2923    6.2754   -8.1374 C   0  0  0  0  0  0
    0.3042    7.2406   -7.6805 C   0  0  0  0  0  0
   -0.8194    7.3477   -8.1603 O   0  0  0  0  0  0
    0.7530    8.0901   -6.6709 O   0  0  0  0  0  0
    2.0713    8.0326   -6.1661 C   0  0  0  0  0  0
    2.3726    8.8586   -5.0998 C   0  0  0  0  0  0
    3.6385    8.8175   -4.5524 C   0  0  0  0  0  0
    3.8053    9.6283   -3.4611 O   0  0  0  0  0  0
    2.4612   10.0568   -3.1203 C   0  0  0  0  0  0
    2.4127   11.4784   -2.8632 O   0  0  0  0  0  0
    1.7043   11.9926   -3.9292 C   0  0  0  0  0  0
    1.2061   11.1093   -4.7936 C   0  0  0  0  0  0
    1.5012    9.7445   -4.2944 C   0  0  0  0  0  0
    4.6288    7.9811   -5.0361 C   0  0  0  0  0  0
    4.3207    7.1056   -6.0881 C   0  0  0  0  0  0
    5.2049    6.1791   -6.5776 O   0  0  0  0  0  0
    6.5965    6.4597   -6.4780 C   0  0  0  0  0  0
    3.0289    7.1334   -6.6772 C   0  0  0  0  0  0
    2.5714    6.2293   -7.7362 C   0  0  0  0  0  0
    3.3747    5.1737   -8.4261 C   0  0  0  0  0  0
    2.4998    4.7767   -9.6092 C   0  0  0  0  0  0
  1  2  2  0  0  0
  2  3  1  0  0  0
  2 23  1  0  0  0
  3  4  1  0  0  0
  3 21  2  0  0  0
  4  5  2  0  0  0
  4  6  1  0  0  0
  6  7  1  0  0  0
  7  8  1  0  0  0
  7 20  2  0  0  0
  8  9  2  0  0  0
  8 15  1  0  0  0
  9 10  1  0  0  0
  9 16  1  0  0  0
 10 11  1  0  0  0
 11 12  1  0  0  0
 11 15  1  0  0  0
 12 13  1  0  0  0
 13 14  2  0  0  0
 14 15  1  0  0  0
 16 17  2  0  0  0
 17 18  1  0  0  0
 17 20  1  0  0  0
 18 19  1  0  0  0
 20 21  1  0  0  0
 21 22  1  0  0  0
 22 23  1  0  0  0
M  END
>  <AUTHOR>
    GENERATED BY OPEN BABEL 3.1.0

>  <CHROM.1>
-28.33013024,2.44584440,7.80422425,-6.26615640,1.68798774,0.29238882,-2.39576604

>  <COMPND>
    UNNAMED

>  <MASTER>
        0    0    0    0    0    0    0    0   35    0   35    0

>  <Name>
AFB1t.pdb

>  <RI>
0

>  <Rbt.Current_Directory>
/home/fc/tossine/AF_AB3/p3/0_clust01

>  <Rbt.Executable>
rbdock/0.1.0

>  <Rbt.Library>
librxdock.so/0.1.0

>  <Rbt.Parameter_File>
/cluster/rxdock/data/scripts/dock.prm

>  <Rbt.Receptor>
rx_3.prm

>  <SCORE>
-9.25974

>  <SCORE.INTER>
-9.23204

>  <SCORE.INTER.CONST>
1

>  <SCORE.INTER.POLAR>
0

>  <SCORE.INTER.REPUL>
0.0318501

>  <SCORE.INTER.ROT>
1

>  <SCORE.INTER.VDW>
-15.7913

>  <SCORE.INTER.norm>
-0.401393

>  <SCORE.INTRA>
-0.227222

>  <SCORE.INTRA.DIHEDRAL>
0.934487

>  <SCORE.INTRA.DIHEDRAL.0>
0.0968638

>  <SCORE.INTRA.POLAR>
0

>  <SCORE.INTRA.POLAR.0>
0

>  <SCORE.INTRA.REPUL>
0

>  <SCORE.INTRA.REPUL.0>
0

>  <SCORE.INTRA.VDW>
-0.694465

>  <SCORE.INTRA.VDW.0>
2.11718

>  <SCORE.INTRA.norm>
-0.00987921

>  <SCORE.RESTR>
0.199527

>  <SCORE.RESTR.CAVITY>
0.199527

>  <SCORE.RESTR.norm>
0.00867508

>  <SCORE.SYSTEM>
0

>  <SCORE.SYSTEM.CONST>
0

>  <SCORE.SYSTEM.DIHEDRAL>
0

>  <SCORE.SYSTEM.norm>
0

>  <SCORE.heavy>
23

>  <SCORE.norm>
-0.402597

$$$$
