AFB1t.pdb
  RxDock  09122017373D
librxdock.so/0.1.0
 23 27  0  0  0  0  0  0  0  0999 V2000
   -5.0063    0.0195    7.2083 O   0  0  0  0  0  0
   -3.8781   -0.1844    6.8006 C   0  0  0  0  0  0
   -3.4396   -1.3703    6.0649 C   0  0  0  0  0  0
   -4.0548   -2.6865    5.9876 C   0  0  0  0  0  0
   -5.0240   -3.0283    6.6569 O   0  0  0  0  0  0
   -3.4179   -3.5695    5.1176 O   0  0  0  0  0  0
   -2.2517   -3.2160    4.4026 C   0  0  0  0  0  0
   -1.7652   -4.1399    3.4972 C   0  0  0  0  0  0
   -0.6455   -3.8289    2.7533 C   0  0  0  0  0  0
   -0.2917   -4.7890    1.8426 O   0  0  0  0  0  0
   -1.4193   -5.7024    1.8238 C   0  0  0  0  0  0
   -0.9811   -7.0788    1.8801 O   0  0  0  0  0  0
   -1.3713   -7.5088    3.1312 C   0  0  0  0  0  0
   -2.0780   -6.6476    3.8623 C   0  0  0  0  0  0
   -2.3283   -5.4338    3.0482 C   0  0  0  0  0  0
    0.0196   -2.6226    2.8829 C   0  0  0  0  0  0
   -0.4920   -1.6595    3.7654 C   0  0  0  0  0  0
    0.0428   -0.4041    3.8993 O   0  0  0  0  0  0
    1.4422   -0.2909    4.1319 C   0  0  0  0  0  0
   -1.6372   -1.9561    4.5511 C   0  0  0  0  0  0
   -2.2974   -1.0137    5.4587 C   0  0  0  0  0  0
   -1.8674    0.3836    5.7723 C   0  0  0  0  0  0
   -2.7265    0.7594    6.9737 C   0  0  0  0  0  0
  1  2  2  0  0  0
  2  3  1  0  0  0
  2 23  1  0  0  0
  3  4  1  0  0  0
  3 21  2  0  0  0
  4  5  2  0  0  0
  4  6  1  0  0  0
  6  7  1  0  0  0
  7  8  1  0  0  0
  7 20  2  0  0  0
  8  9  2  0  0  0
  8 15  1  0  0  0
  9 10  1  0  0  0
  9 16  1  0  0  0
 10 11  1  0  0  0
 11 12  1  0  0  0
 11 15  1  0  0  0
 12 13  1  0  0  0
 13 14  2  0  0  0
 14 15  1  0  0  0
 16 17  2  0  0  0
 17 18  1  0  0  0
 17 20  1  0  0  0
 18 19  1  0  0  0
 20 21  1  0  0  0
 21 22  1  0  0  0
 22 23  1  0  0  0
M  END
>  <AUTHOR>
    GENERATED BY OPEN BABEL 3.1.0

>  <CHROM.1>
-51.41526422,-1.97515053,-2.86360439,4.41410833,1.92260638,0.56832818,0.40993599

>  <COMPND>
    UNNAMED

>  <MASTER>
        0    0    0    0    0    0    0    0   35    0   35    0

>  <Name>
AFB1t.pdb

>  <RI>
0

>  <Rbt.Current_Directory>
/home/fc/tossine/AF_1/p3/1_clust02

>  <Rbt.Executable>
rbdock/0.1.0

>  <Rbt.Library>
librxdock.so/0.1.0

>  <Rbt.Parameter_File>
/cluster/rxdock/data/scripts/dock.prm

>  <Rbt.Receptor>
rx_0.prm

>  <SCORE>
-3.4668

>  <SCORE.INTER>
-3.17629

>  <SCORE.INTER.CONST>
1

>  <SCORE.INTER.POLAR>
0

>  <SCORE.INTER.REPUL>
0.402568

>  <SCORE.INTER.ROT>
1

>  <SCORE.INTER.VDW>
-11.5891

>  <SCORE.INTER.norm>
-0.138099

>  <SCORE.INTRA>
-0.29051

>  <SCORE.INTRA.DIHEDRAL>
2.77689

>  <SCORE.INTRA.DIHEDRAL.0>
0.0968638

>  <SCORE.INTRA.POLAR>
0

>  <SCORE.INTRA.POLAR.0>
0

>  <SCORE.INTRA.REPUL>
0

>  <SCORE.INTRA.REPUL.0>
0

>  <SCORE.INTRA.VDW>
-1.67896

>  <SCORE.INTRA.VDW.0>
2.11718

>  <SCORE.INTRA.norm>
-0.0126309

>  <SCORE.RESTR>
0

>  <SCORE.RESTR.CAVITY>
0

>  <SCORE.RESTR.norm>
0

>  <SCORE.SYSTEM>
0

>  <SCORE.SYSTEM.CONST>
0

>  <SCORE.SYSTEM.DIHEDRAL>
0

>  <SCORE.SYSTEM.norm>
0

>  <SCORE.heavy>
23

>  <SCORE.norm>
-0.15073

$$$$
