AFB1t.pdb
  RxDock  09122018513D
librxdock.so/0.1.0
 23 27  0  0  0  0  0  0  0  0999 V2000
   -6.3503    0.5362    8.1148 O   0  0  0  0  0  0
   -5.2209    0.2920    7.7333 C   0  0  0  0  0  0
   -4.7977   -0.9316    7.0524 C   0  0  0  0  0  0
   -5.4405   -2.2363    7.0178 C   0  0  0  0  0  0
   -6.4269   -2.5302    7.6848 O   0  0  0  0  0  0
   -4.8103   -3.1670    6.1936 O   0  0  0  0  0  0
   -3.6262   -2.8674    5.4836 C   0  0  0  0  0  0
   -3.1467   -3.8370    4.6234 C   0  0  0  0  0  0
   -2.0095   -3.5802    3.8854 C   0  0  0  0  0  0
   -1.6634   -4.5833    3.0193 O   0  0  0  0  0  0
   -2.8105   -5.4724    3.0191 C   0  0  0  0  0  0
   -2.4035   -6.8545    3.1369 O   0  0  0  0  0  0
   -2.8216   -7.2255    4.3979 C   0  0  0  0  0  0
   -3.5201   -6.3208    5.0830 C   0  0  0  0  0  0
   -3.7314   -5.1355    4.2174 C   0  0  0  0  0  0
   -1.3201   -2.3842    3.9775 C   0  0  0  0  0  0
   -1.8234   -1.3757    4.8128 C   0  0  0  0  0  0
   -1.2631   -0.1277    4.9050 O   0  0  0  0  0  0
    0.1182    0.0138    4.5935 C   0  0  0  0  0  0
   -2.9863   -1.6160    5.5915 C   0  0  0  0  0  0
   -3.6391   -0.6240    6.4505 C   0  0  0  0  0  0
   -3.1831    0.7752    6.7149 C   0  0  0  0  0  0
   -4.0515    1.2171    7.8868 C   0  0  0  0  0  0
  1  2  2  0  0  0
  2  3  1  0  0  0
  2 23  1  0  0  0
  3  4  1  0  0  0
  3 21  2  0  0  0
  4  5  2  0  0  0
  4  6  1  0  0  0
  6  7  1  0  0  0
  7  8  1  0  0  0
  7 20  2  0  0  0
  8  9  2  0  0  0
  8 15  1  0  0  0
  9 10  1  0  0  0
  9 16  1  0  0  0
 10 11  1  0  0  0
 11 12  1  0  0  0
 11 15  1  0  0  0
 12 13  1  0  0  0
 13 14  2  0  0  0
 14 15  1  0  0  0
 16 17  2  0  0  0
 17 18  1  0  0  0
 17 20  1  0  0  0
 18 19  1  0  0  0
 20 21  1  0  0  0
 21 22  1  0  0  0
 22 23  1  0  0  0
M  END
>  <AUTHOR>
    GENERATED BY OPEN BABEL 3.1.0

>  <CHROM.1>
-25.43695972,-3.34295089,-2.51846095,5.45840816,1.92186357,0.57120151,0.36451912

>  <COMPND>
    UNNAMED

>  <MASTER>
        0    0    0    0    0    0    0    0   35    0   35    0

>  <Name>
AFB1t.pdb

>  <RI>
0

>  <Rbt.Current_Directory>
/home/fc/tossine/AF_1/p3/1_clust02

>  <Rbt.Executable>
rbdock/0.1.0

>  <Rbt.Library>
librxdock.so/0.1.0

>  <Rbt.Parameter_File>
/cluster/rxdock/data/scripts/dock.prm

>  <Rbt.Receptor>
rx_3.prm

>  <SCORE>
-0.591072

>  <SCORE.INTER>
-0.39395

>  <SCORE.INTER.CONST>
1

>  <SCORE.INTER.POLAR>
0

>  <SCORE.INTER.REPUL>
0.417324

>  <SCORE.INTER.ROT>
1

>  <SCORE.INTER.VDW>
-8.88057

>  <SCORE.INTER.norm>
-0.0171282

>  <SCORE.INTRA>
-0.197123

>  <SCORE.INTRA.DIHEDRAL>
0.742789

>  <SCORE.INTRA.DIHEDRAL.0>
0.0968638

>  <SCORE.INTRA.POLAR>
0

>  <SCORE.INTRA.POLAR.0>
0

>  <SCORE.INTRA.REPUL>
0

>  <SCORE.INTRA.REPUL.0>
0

>  <SCORE.INTRA.VDW>
-0.568517

>  <SCORE.INTRA.VDW.0>
2.11718

>  <SCORE.INTRA.norm>
-0.00857055

>  <SCORE.RESTR>
0

>  <SCORE.RESTR.CAVITY>
0

>  <SCORE.RESTR.norm>
0

>  <SCORE.SYSTEM>
0

>  <SCORE.SYSTEM.CONST>
0

>  <SCORE.SYSTEM.DIHEDRAL>
0

>  <SCORE.SYSTEM.norm>
0

>  <SCORE.heavy>
23

>  <SCORE.norm>
-0.0256988

$$$$
