AFB1t.pdb
  RxDock  09122018083D
librxdock.so/0.1.0
 23 27  0  0  0  0  0  0  0  0999 V2000
    6.2482    0.4761   13.9434 O   0  0  0  0  0  0
    7.0772    0.4684   13.0527 C   0  0  0  0  0  0
    6.9051    1.0553   11.7238 C   0  0  0  0  0  0
    5.6792    1.4047   11.0225 C   0  0  0  0  0  0
    4.5557    1.1368   11.4349 O   0  0  0  0  0  0
    5.8776    2.0334    9.7945 O   0  0  0  0  0  0
    7.1668    2.2740    9.2688 C   0  0  0  0  0  0
    7.2409    2.9907    8.0894 C   0  0  0  0  0  0
    8.4789    3.2767    7.5516 C   0  0  0  0  0  0
    8.4354    4.0468    6.4197 O   0  0  0  0  0  0
    7.0599    4.5039    6.3462 C   0  0  0  0  0  0
    6.5294    4.3595    5.0093 O   0  0  0  0  0  0
    5.5988    3.3474    5.1204 C   0  0  0  0  0  0
    5.3785    2.8742    6.3465 C   0  0  0  0  0  0
    6.1807    3.6680    7.3084 C   0  0  0  0  0  0
    9.6587    2.8659    8.1463 C   0  0  0  0  0  0
    9.5970    2.1777    9.3673 C   0  0  0  0  0  0
   10.7097    1.8067   10.0773 O   0  0  0  0  0  0
   11.7282    1.0797    9.3995 C   0  0  0  0  0  0
    8.3362    1.8610    9.9387 C   0  0  0  0  0  0
    8.1452    1.2027   11.2341 C   0  0  0  0  0  0
    9.2120    0.6942   12.1501 C   0  0  0  0  0  0
    8.4414   -0.1427   13.1642 C   0  0  0  0  0  0
  1  2  2  0  0  0
  2  3  1  0  0  0
  2 23  1  0  0  0
  3  4  1  0  0  0
  3 21  2  0  0  0
  4  5  2  0  0  0
  4  6  1  0  0  0
  6  7  1  0  0  0
  7  8  1  0  0  0
  7 20  2  0  0  0
  8  9  2  0  0  0
  8 15  1  0  0  0
  9 10  1  0  0  0
  9 16  1  0  0  0
 10 11  1  0  0  0
 11 12  1  0  0  0
 11 15  1  0  0  0
 12 13  1  0  0  0
 13 14  2  0  0  0
 14 15  1  0  0  0
 16 17  2  0  0  0
 17 18  1  0  0  0
 17 20  1  0  0  0
 18 19  1  0  0  0
 20 21  1  0  0  0
 21 22  1  0  0  0
 22 23  1  0  0  0
M  END
>  <AUTHOR>
    GENERATED BY OPEN BABEL 3.1.0

>  <CHROM.1>
-51.98041585,7.57955951,2.14911992,9.39011006,1.47286661,-0.04630196,2.02660547

>  <COMPND>
    UNNAMED

>  <MASTER>
        0    0    0    0    0    0    0    0   35    0   35    0

>  <Name>
AFB1t.pdb

>  <RI>
0

>  <Rbt.Current_Directory>
/home/fc/tossine/AF_1/p3/1_clust02

>  <Rbt.Executable>
rbdock/0.1.0

>  <Rbt.Library>
librxdock.so/0.1.0

>  <Rbt.Parameter_File>
/cluster/rxdock/data/scripts/dock.prm

>  <Rbt.Receptor>
rx_1.prm

>  <SCORE>
-5.38116

>  <SCORE.INTER>
-5.09387

>  <SCORE.INTER.CONST>
1

>  <SCORE.INTER.POLAR>
0

>  <SCORE.INTER.REPUL>
1.23952

>  <SCORE.INTER.ROT>
1

>  <SCORE.INTER.VDW>
-17.6915

>  <SCORE.INTER.norm>
-0.221473

>  <SCORE.INTRA>
-0.287288

>  <SCORE.INTRA.DIHEDRAL>
2.8232

>  <SCORE.INTRA.DIHEDRAL.0>
0.0968638

>  <SCORE.INTRA.POLAR>
0

>  <SCORE.INTRA.POLAR.0>
0

>  <SCORE.INTRA.REPUL>
0

>  <SCORE.INTRA.REPUL.0>
0

>  <SCORE.INTRA.VDW>
-1.69889

>  <SCORE.INTRA.VDW.0>
2.11718

>  <SCORE.INTRA.norm>
-0.0124908

>  <SCORE.RESTR>
0

>  <SCORE.RESTR.CAVITY>
0

>  <SCORE.RESTR.norm>
0

>  <SCORE.SYSTEM>
0

>  <SCORE.SYSTEM.CONST>
0

>  <SCORE.SYSTEM.DIHEDRAL>
0

>  <SCORE.SYSTEM.norm>
0

>  <SCORE.heavy>
23

>  <SCORE.norm>
-0.233963

$$$$
