AFB1t.pdb
  RxDock  09122018313D
librxdock.so/0.1.0
 23 27  0  0  0  0  0  0  0  0999 V2000
    7.4023   -2.5359   -1.8628 O   0  0  0  0  0  0
    6.3014   -2.0196   -1.9067 C   0  0  0  0  0  0
    5.7499   -1.1032   -0.9086 C   0  0  0  0  0  0
    6.1474   -0.9014    0.4763 C   0  0  0  0  0  0
    6.9779   -1.5924    1.0567 O   0  0  0  0  0  0
    5.4635    0.1233    1.1281 O   0  0  0  0  0  0
    4.4460    0.8730    0.4967 C   0  0  0  0  0  0
    3.9066    1.9264    1.2105 C   0  0  0  0  0  0
    2.9306    2.7068    0.6255 C   0  0  0  0  0  0
    2.5161    3.7600    1.3970 O   0  0  0  0  0  0
    3.4765    3.8119    2.4839 C   0  0  0  0  0  0
    2.8169    3.9705    3.7603 O   0  0  0  0  0  0
    3.0077    2.7603    4.3941 C   0  0  0  0  0  0
    3.7702    1.8705    3.7596 C   0  0  0  0  0  0
    4.2929    2.4967    2.5213 C   0  0  0  0  0  0
    2.4611    2.4715   -0.6545 C   0  0  0  0  0  0
    3.0338    1.4337   -1.4050 C   0  0  0  0  0  0
    2.6998    1.1778   -2.7099 O   0  0  0  0  0  0
    1.8598    2.1081   -3.3837 C   0  0  0  0  0  0
    4.0330    0.6082   -0.8247 C   0  0  0  0  0  0
    4.7457   -0.4632   -1.5262 C   0  0  0  0  0  0
    4.5202   -0.9234   -2.9308 C   0  0  0  0  0  0
    5.3072   -2.2261   -3.0094 C   0  0  0  0  0  0
  1  2  2  0  0  0
  2  3  1  0  0  0
  2 23  1  0  0  0
  3  4  1  0  0  0
  3 21  2  0  0  0
  4  5  2  0  0  0
  4  6  1  0  0  0
  6  7  1  0  0  0
  7  8  1  0  0  0
  7 20  2  0  0  0
  8  9  2  0  0  0
  8 15  1  0  0  0
  9 10  1  0  0  0
  9 16  1  0  0  0
 10 11  1  0  0  0
 11 12  1  0  0  0
 11 15  1  0  0  0
 12 13  1  0  0  0
 13 14  2  0  0  0
 14 15  1  0  0  0
 16 17  2  0  0  0
 17 18  1  0  0  0
 17 20  1  0  0  0
 18 19  1  0  0  0
 20 21  1  0  0  0
 21 22  1  0  0  0
 22 23  1  0  0  0
M  END
>  <AUTHOR>
    GENERATED BY OPEN BABEL 3.1.0

>  <CHROM.1>
8.10265236,4.25655806,0.88807777,0.08876808,-1.02328425,-0.78019636,1.18122343

>  <COMPND>
    UNNAMED

>  <MASTER>
        0    0    0    0    0    0    0    0   35    0   35    0

>  <Name>
AFB1t.pdb

>  <RI>
0

>  <Rbt.Current_Directory>
/home/fc/tossine/AF_1/p3/1_clust02

>  <Rbt.Executable>
rbdock/0.1.0

>  <Rbt.Library>
librxdock.so/0.1.0

>  <Rbt.Parameter_File>
/cluster/rxdock/data/scripts/dock.prm

>  <Rbt.Receptor>
rx_2.prm

>  <SCORE>
12.5636

>  <SCORE.INTER>
12.5671

>  <SCORE.INTER.CONST>
1

>  <SCORE.INTER.POLAR>
0

>  <SCORE.INTER.REPUL>
0

>  <SCORE.INTER.ROT>
1

>  <SCORE.INTER.VDW>
6.16705

>  <SCORE.INTER.norm>
0.546394

>  <SCORE.INTRA>
-0.00349061

>  <SCORE.INTRA.DIHEDRAL>
0.0168021

>  <SCORE.INTRA.DIHEDRAL.0>
0.0968638

>  <SCORE.INTRA.POLAR>
0

>  <SCORE.INTRA.POLAR.0>
0

>  <SCORE.INTRA.REPUL>
0

>  <SCORE.INTRA.REPUL.0>
0

>  <SCORE.INTRA.VDW>
-0.0118917

>  <SCORE.INTRA.VDW.0>
2.11718

>  <SCORE.INTRA.norm>
-0.000151765

>  <SCORE.RESTR>
0

>  <SCORE.RESTR.CAVITY>
0

>  <SCORE.RESTR.norm>
0

>  <SCORE.SYSTEM>
0

>  <SCORE.SYSTEM.CONST>
0

>  <SCORE.SYSTEM.DIHEDRAL>
0

>  <SCORE.SYSTEM.norm>
0

>  <SCORE.heavy>
23

>  <SCORE.norm>
0.546242

$$$$
