AFB1t.pdb
  RxDock  09122019513D
librxdock.so/0.1.0
 23 27  0  0  0  0  0  0  0  0999 V2000
    9.4430  -11.1222   -1.3451 O   0  0  0  0  0  0
    8.4159  -10.5091   -1.5684 C   0  0  0  0  0  0
    7.6540   -9.7372   -0.5867 C   0  0  0  0  0  0
    7.6731   -9.8194    0.8658 C   0  0  0  0  0  0
    8.2890  -10.6738    1.4940 O   0  0  0  0  0  0
    6.8811   -8.8683    1.5067 O   0  0  0  0  0  0
    6.1013   -7.9304    0.7937 C   0  0  0  0  0  0
    5.4330   -6.9751    1.5358 C   0  0  0  0  0  0
    4.6819   -6.0191    0.8832 C   0  0  0  0  0  0
    4.1183   -5.0855    1.7120 O   0  0  0  0  0  0
    4.7531   -5.3127    2.9972 C   0  0  0  0  0  0
    3.7820   -5.3229    4.0680 O   0  0  0  0  0  0
    3.7469   -6.6381    4.4823 C   0  0  0  0  0  0
    4.6153   -7.4671    3.9041 C   0  0  0  0  0  0
    5.4759   -6.6821    2.9866 C   0  0  0  0  0  0
    4.5641   -5.9818   -0.4948 C   0  0  0  0  0  0
    5.2750   -6.9183   -1.2601 C   0  0  0  0  0  0
    5.2934   -6.9090   -2.6311 O   0  0  0  0  0  0
    5.0635   -5.6732   -3.2981 C   0  0  0  0  0  0
    6.0478   -7.9198   -0.6149 C   0  0  0  0  0  0
    6.8790   -8.9105   -1.3044 C   0  0  0  0  0  0
    7.0204   -9.0936   -2.7817 C   0  0  0  0  0  0
    7.7467  -10.4276   -2.9072 C   0  0  0  0  0  0
  1  2  2  0  0  0
  2  3  1  0  0  0
  2 23  1  0  0  0
  3  4  1  0  0  0
  3 21  2  0  0  0
  4  5  2  0  0  0
  4  6  1  0  0  0
  6  7  1  0  0  0
  7  8  1  0  0  0
  7 20  2  0  0  0
  8  9  2  0  0  0
  8 15  1  0  0  0
  9 10  1  0  0  0
  9 16  1  0  0  0
 10 11  1  0  0  0
 11 12  1  0  0  0
 11 15  1  0  0  0
 12 13  1  0  0  0
 13 14  2  0  0  0
 14 15  1  0  0  0
 16 17  2  0  0  0
 17 18  1  0  0  0
 17 20  1  0  0  0
 18 19  1  0  0  0
 20 21  1  0  0  0
 21 22  1  0  0  0
 22 23  1  0  0  0
M  END
>  <AUTHOR>
    GENERATED BY OPEN BABEL 3.1.0

>  <CHROM.1>
25.66519685,6.04646991,-7.82044915,0.36199620,-0.62496844,-0.90056336,1.68394237

>  <COMPND>
    UNNAMED

>  <MASTER>
        0    0    0    0    0    0    0    0   35    0   35    0

>  <Name>
AFB1t.pdb

>  <RI>
0

>  <Rbt.Current_Directory>
/home/fc/tossine/AF_1/p3/2_clust04

>  <Rbt.Executable>
rbdock/0.1.0

>  <Rbt.Library>
librxdock.so/0.1.0

>  <Rbt.Parameter_File>
/cluster/rxdock/data/scripts/dock.prm

>  <Rbt.Receptor>
rx_3.prm

>  <SCORE>
-9.1893

>  <SCORE.INTER>
-9.54945

>  <SCORE.INTER.CONST>
1

>  <SCORE.INTER.POLAR>
0

>  <SCORE.INTER.REPUL>
0

>  <SCORE.INTER.ROT>
1

>  <SCORE.INTER.VDW>
-15.9494

>  <SCORE.INTER.norm>
-0.415193

>  <SCORE.INTRA>
-0.177027

>  <SCORE.INTRA.DIHEDRAL>
0.851636

>  <SCORE.INTRA.DIHEDRAL.0>
0.0968638

>  <SCORE.INTRA.POLAR>
0

>  <SCORE.INTRA.POLAR.0>
0

>  <SCORE.INTRA.REPUL>
0

>  <SCORE.INTRA.REPUL.0>
0

>  <SCORE.INTRA.VDW>
-0.602845

>  <SCORE.INTRA.VDW.0>
2.11718

>  <SCORE.INTRA.norm>
-0.00769683

>  <SCORE.RESTR>
0.537179

>  <SCORE.RESTR.CAVITY>
0.537179

>  <SCORE.RESTR.norm>
0.0233556

>  <SCORE.SYSTEM>
0

>  <SCORE.SYSTEM.CONST>
0

>  <SCORE.SYSTEM.DIHEDRAL>
0

>  <SCORE.SYSTEM.norm>
0

>  <SCORE.heavy>
23

>  <SCORE.norm>
-0.399535

$$$$
