AFB1t.pdb
  RxDock  09122019173D
librxdock.so/0.1.0
 23 27  0  0  0  0  0  0  0  0999 V2000
    2.5193   -2.1362   -2.1665 O   0  0  0  0  0  0
    2.6369   -2.8542   -1.1912 C   0  0  0  0  0  0
    3.3442   -4.1342   -1.1560 C   0  0  0  0  0  0
    3.7063   -5.0174   -2.2540 C   0  0  0  0  0  0
    3.3490   -4.8468   -3.4148 O   0  0  0  0  0  0
    4.4617   -6.1260   -1.8761 O   0  0  0  0  0  0
    4.8104   -6.3792   -0.5306 C   0  0  0  0  0  0
    5.6430   -7.4555   -0.2889 C   0  0  0  0  0  0
    6.0358   -7.7259    1.0059 C   0  0  0  0  0  0
    6.9114   -8.7730    1.1202 O   0  0  0  0  0  0
    7.3118   -9.0601   -0.2449 C   0  0  0  0  0  0
    7.2770  -10.4798   -0.5148 O   0  0  0  0  0  0
    6.2184  -10.6343   -1.3855 C   0  0  0  0  0  0
    5.6167   -9.5178   -1.7942 C   0  0  0  0  0  0
    6.3463   -8.3566   -1.2302 C   0  0  0  0  0  0
    5.6211   -6.9612    2.0818 C   0  0  0  0  0  0
    4.8134   -5.8393    1.8430 C   0  0  0  0  0  0
    4.4238   -4.9706    2.8297 O   0  0  0  0  0  0
    5.2117   -4.8998    4.0126 C   0  0  0  0  0  0
    4.3857   -5.5429    0.5217 C   0  0  0  0  0  0
    3.5945   -4.3696    0.1406 C   0  0  0  0  0  0
    3.0459   -3.3201    1.0535 C   0  0  0  0  0  0
    2.0791   -2.5458    0.1656 C   0  0  0  0  0  0
  1  2  2  0  0  0
  2  3  1  0  0  0
  2 23  1  0  0  0
  3  4  1  0  0  0
  3 21  2  0  0  0
  4  5  2  0  0  0
  4  6  1  0  0  0
  6  7  1  0  0  0
  7  8  1  0  0  0
  7 20  2  0  0  0
  8  9  2  0  0  0
  8 15  1  0  0  0
  9 10  1  0  0  0
  9 16  1  0  0  0
 10 11  1  0  0  0
 11 12  1  0  0  0
 11 15  1  0  0  0
 12 13  1  0  0  0
 13 14  2  0  0  0
 14 15  1  0  0  0
 16 17  2  0  0  0
 17 18  1  0  0  0
 17 20  1  0  0  0
 18 19  1  0  0  0
 20 21  1  0  0  0
 21 22  1  0  0  0
 22 23  1  0  0  0
M  END
>  <AUTHOR>
    GENERATED BY OPEN BABEL 3.1.0

>  <CHROM.1>
22.90744108,4.76000733,-6.16544602,-0.13884739,2.89098222,-1.00651989,1.22303180

>  <COMPND>
    UNNAMED

>  <MASTER>
        0    0    0    0    0    0    0    0   35    0   35    0

>  <Name>
AFB1t.pdb

>  <RI>
0

>  <Rbt.Current_Directory>
/home/fc/tossine/AF_1/p3/2_clust04

>  <Rbt.Executable>
rbdock/0.1.0

>  <Rbt.Library>
librxdock.so/0.1.0

>  <Rbt.Parameter_File>
/cluster/rxdock/data/scripts/dock.prm

>  <Rbt.Receptor>
rx_0.prm

>  <SCORE>
-11.7242

>  <SCORE.INTER>
-12.1099

>  <SCORE.INTER.CONST>
1

>  <SCORE.INTER.POLAR>
0

>  <SCORE.INTER.REPUL>
0.136784

>  <SCORE.INTER.ROT>
1

>  <SCORE.INTER.VDW>
-19.1939

>  <SCORE.INTER.norm>
-0.526519

>  <SCORE.INTRA>
-0.149421

>  <SCORE.INTRA.DIHEDRAL>
0.67474

>  <SCORE.INTRA.DIHEDRAL.0>
0.0968638

>  <SCORE.INTRA.POLAR>
0

>  <SCORE.INTRA.POLAR.0>
0

>  <SCORE.INTRA.REPUL>
0

>  <SCORE.INTRA.REPUL.0>
0

>  <SCORE.INTRA.VDW>
-0.486791

>  <SCORE.INTRA.VDW.0>
2.11718

>  <SCORE.INTRA.norm>
-0.00649655

>  <SCORE.RESTR>
0.535146

>  <SCORE.RESTR.CAVITY>
0.535146

>  <SCORE.RESTR.norm>
0.0232672

>  <SCORE.SYSTEM>
0

>  <SCORE.SYSTEM.CONST>
0

>  <SCORE.SYSTEM.DIHEDRAL>
0

>  <SCORE.SYSTEM.norm>
0

>  <SCORE.heavy>
23

>  <SCORE.norm>
-0.509749

$$$$
