AFB1t.pdb
  RxDock  09122020033D
librxdock.so/0.1.0
 23 27  0  0  0  0  0  0  0  0999 V2000
  -11.0336  -15.0024   -5.2597 O   0  0  0  0  0  0
  -10.3503  -15.1323   -4.2612 C   0  0  0  0  0  0
   -9.1233  -14.3923   -3.9665 C   0  0  0  0  0  0
   -8.2396  -13.6751   -4.8728 C   0  0  0  0  0  0
   -8.3558  -13.6881   -6.0937 O   0  0  0  0  0  0
   -7.1955  -12.9991   -4.2440 O   0  0  0  0  0  0
   -7.0011  -13.0433   -2.8453 C   0  0  0  0  0  0
   -5.9911  -12.2558   -2.3259 C   0  0  0  0  0  0
   -5.7812  -12.2421   -0.9623 C   0  0  0  0  0  0
   -4.8001  -11.3781   -0.5535 O   0  0  0  0  0  0
   -4.5067  -10.5814   -1.7306 C   0  0  0  0  0  0
   -3.0816  -10.4530   -1.9359 O   0  0  0  0  0  0
   -2.8326  -11.2011   -3.0677 C   0  0  0  0  0  0
   -3.8943  -11.7218   -3.6818 C   0  0  0  0  0  0
   -5.1169  -11.2574   -2.9830 C   0  0  0  0  0  0
   -6.5426  -12.9961   -0.0871 C   0  0  0  0  0  0
   -7.5999  -13.7634   -0.5985 C   0  0  0  0  0  0
   -8.4644  -14.4736    0.1940 O   0  0  0  0  0  0
   -8.0003  -14.9204    1.4629 C   0  0  0  0  0  0
   -7.8326  -13.8042   -1.9988 C   0  0  0  0  0  0
   -8.9387  -14.5173   -2.6438 C   0  0  0  0  0  0
   -9.9707  -15.3684   -1.9758 C   0  0  0  0  0  0
  -10.6539  -16.0781   -3.1386 C   0  0  0  0  0  0
  1  2  2  0  0  0
  2  3  1  0  0  0
  2 23  1  0  0  0
  3  4  1  0  0  0
  3 21  2  0  0  0
  4  5  2  0  0  0
  4  6  1  0  0  0
  6  7  1  0  0  0
  7  8  1  0  0  0
  7 20  2  0  0  0
  8  9  2  0  0  0
  8 15  1  0  0  0
  9 10  1  0  0  0
  9 16  1  0  0  0
 10 11  1  0  0  0
 11 12  1  0  0  0
 11 15  1  0  0  0
 12 13  1  0  0  0
 13 14  2  0  0  0
 14 15  1  0  0  0
 16 17  2  0  0  0
 17 18  1  0  0  0
 17 20  1  0  0  0
 18 19  1  0  0  0
 20 21  1  0  0  0
 21 22  1  0  0  0
 22 23  1  0  0  0
M  END
>  <AUTHOR>
    GENERATED BY OPEN BABEL 3.1.0

>  <CHROM.1>
-26.85542207,-7.19090229,-13.25895692,-2.49893294,-2.98275543,0.60423453
1.70713969

>  <COMPND>
    UNNAMED

>  <MASTER>
        0    0    0    0    0    0    0    0   35    0   35    0

>  <Name>
AFB1t.pdb

>  <RI>
0

>  <Rbt.Current_Directory>
/home/fc/tossine/AF_1/p3/2_clust04

>  <Rbt.Executable>
rbdock/0.1.0

>  <Rbt.Library>
librxdock.so/0.1.0

>  <Rbt.Parameter_File>
/cluster/rxdock/data/scripts/dock.prm

>  <Rbt.Receptor>
rx_4.prm

>  <SCORE>
-8.64663

>  <SCORE.INTER>
-8.45125

>  <SCORE.INTER.CONST>
1

>  <SCORE.INTER.POLAR>
0

>  <SCORE.INTER.REPUL>
0.707789

>  <SCORE.INTER.ROT>
1

>  <SCORE.INTER.VDW>
-18.3902

>  <SCORE.INTER.norm>
-0.367446

>  <SCORE.INTRA>
-0.212232

>  <SCORE.INTRA.DIHEDRAL>
0.834905

>  <SCORE.INTRA.DIHEDRAL.0>
0.0968638

>  <SCORE.INTRA.POLAR>
0

>  <SCORE.INTRA.POLAR.0>
0

>  <SCORE.INTRA.REPUL>
0

>  <SCORE.INTRA.REPUL.0>
0

>  <SCORE.INTRA.VDW>
-0.629685

>  <SCORE.INTRA.VDW.0>
2.11718

>  <SCORE.INTRA.norm>
-0.00922749

>  <SCORE.RESTR>
0.0168577

>  <SCORE.RESTR.CAVITY>
0.0168577

>  <SCORE.RESTR.norm>
0.000732945

>  <SCORE.SYSTEM>
0

>  <SCORE.SYSTEM.CONST>
0

>  <SCORE.SYSTEM.DIHEDRAL>
0

>  <SCORE.SYSTEM.norm>
0

>  <SCORE.heavy>
23

>  <SCORE.norm>
-0.37594

$$$$
