AFB1t.pdb
  RxDock  09122019313D
librxdock.so/0.1.0
 23 27  0  0  0  0  0  0  0  0999 V2000
    9.5716  -11.0832   -1.3829 O   0  0  0  0  0  0
    8.5351  -10.4817   -1.5938 C   0  0  0  0  0  0
    7.7506   -9.7593   -0.5924 C   0  0  0  0  0  0
    7.7589   -9.8925    0.8563 C   0  0  0  0  0  0
    8.3853  -10.7572    1.4597 O   0  0  0  0  0  0
    6.9437   -8.9796    1.5231 O   0  0  0  0  0  0
    6.1525   -8.0316    0.8365 C   0  0  0  0  0  0
    5.4601   -7.1157    1.6057 C   0  0  0  0  0  0
    4.6968   -6.1512    0.9805 C   0  0  0  0  0  0
    4.1087   -5.2581    1.8365 O   0  0  0  0  0  0
    4.7367   -5.5190    3.1186 C   0  0  0  0  0  0
    3.7570   -5.5851    4.1794 O   0  0  0  0  0  0
    3.7431   -6.9145    4.5468 C   0  0  0  0  0  0
    4.6318   -7.7063    3.9477 C   0  0  0  0  0  0
    5.4852   -6.8735    3.0664 C   0  0  0  0  0  0
    4.5900   -6.0672   -0.3964 C   0  0  0  0  0  0
    5.3248   -6.9628   -1.1877 C   0  0  0  0  0  0
    5.3547   -6.9046   -2.5573 O   0  0  0  0  0  0
    5.3992   -5.6233   -3.1749 C   0  0  0  0  0  0
    6.1108   -7.9720   -0.5712 C   0  0  0  0  0  0
    6.9663   -8.9222   -1.2876 C   0  0  0  0  0  0
    7.1236   -9.0501   -2.7690 C   0  0  0  0  0  0
    7.8758  -10.3652   -2.9349 C   0  0  0  0  0  0
  1  2  2  0  0  0
  2  3  1  0  0  0
  2 23  1  0  0  0
  3  4  1  0  0  0
  3 21  2  0  0  0
  4  5  2  0  0  0
  4  6  1  0  0  0
  6  7  1  0  0  0
  7  8  1  0  0  0
  7 20  2  0  0  0
  8  9  2  0  0  0
  8 15  1  0  0  0
  9 10  1  0  0  0
  9 16  1  0  0  0
 10 11  1  0  0  0
 11 12  1  0  0  0
 11 15  1  0  0  0
 12 13  1  0  0  0
 13 14  2  0  0  0
 14 15  1  0  0  0
 16 17  2  0  0  0
 17 18  1  0  0  0
 17 20  1  0  0  0
 18 19  1  0  0  0
 20 21  1  0  0  0
 21 22  1  0  0  0
 22 23  1  0  0  0
M  END
>  <AUTHOR>
    GENERATED BY OPEN BABEL 3.1.0

>  <CHROM.1>
39.09402808,6.11333725,-7.90608848,0.40890056,-0.60393316,-0.88831155,1.74754886

>  <COMPND>
    UNNAMED

>  <MASTER>
        0    0    0    0    0    0    0    0   35    0   35    0

>  <Name>
AFB1t.pdb

>  <RI>
0

>  <Rbt.Current_Directory>
/home/fc/tossine/AF_1/p3/2_clust04

>  <Rbt.Executable>
rbdock/0.1.0

>  <Rbt.Library>
librxdock.so/0.1.0

>  <Rbt.Parameter_File>
/cluster/rxdock/data/scripts/dock.prm

>  <Rbt.Receptor>
rx_1.prm

>  <SCORE>
-8.4304

>  <SCORE.INTER>
-8.60006

>  <SCORE.INTER.CONST>
1

>  <SCORE.INTER.POLAR>
0

>  <SCORE.INTER.REPUL>
0

>  <SCORE.INTER.ROT>
1

>  <SCORE.INTER.VDW>
-15.0001

>  <SCORE.INTER.norm>
-0.373916

>  <SCORE.INTRA>
-0.270153

>  <SCORE.INTRA.DIHEDRAL>
1.87126

>  <SCORE.INTRA.DIHEDRAL.0>
0.0968638

>  <SCORE.INTRA.POLAR>
0

>  <SCORE.INTRA.POLAR.0>
0

>  <SCORE.INTRA.REPUL>
0

>  <SCORE.INTRA.REPUL.0>
0

>  <SCORE.INTRA.VDW>
-1.20578

>  <SCORE.INTRA.VDW.0>
2.11718

>  <SCORE.INTRA.norm>
-0.0117458

>  <SCORE.RESTR>
0.439817

>  <SCORE.RESTR.CAVITY>
0.439817

>  <SCORE.RESTR.norm>
0.0191225

>  <SCORE.SYSTEM>
0

>  <SCORE.SYSTEM.CONST>
0

>  <SCORE.SYSTEM.DIHEDRAL>
0

>  <SCORE.SYSTEM.norm>
0

>  <SCORE.heavy>
23

>  <SCORE.norm>
-0.366539

$$$$
