FB1.pdb
  RxDock  10072007223D
librxdock.so/0.1.0
 59 58  0  0  0  0  0  0  0  0999 V2000
   -3.7787   -2.8714   -1.7610 C   0  0  0  0  0  0
   -4.5116   -2.3307   -2.9865 C   0  0  0  0  0  0
   -3.8914   -2.8479   -4.2950 C   0  0  0  0  0  0
   -3.1140   -1.7628   -5.0810 C   0  0  0  0  0  0
   -1.5523   -1.9007   -5.0307 C   0  0  0  0  0  0
   -1.1244   -2.0372   -3.5512 C   0  0  0  0  0  0
   -0.9951   -3.1083   -5.8963 C   0  0  0  0  0  0
   -1.9699   -3.7085   -7.0168 C   0  0  0  0  0  0
   -1.5149   -4.6425   -8.2205 C   0  0  0  0  0  0
   -2.3667   -4.4455   -9.6194 C   0  0  0  0  0  0
   -2.9589   -5.7953  -10.0209 C   0  0  0  0  0  0
   -3.5191   -3.3428   -9.5915 C   0  0  0  0  0  0
   -3.9026   -2.3987  -10.8486 C   0  0  0  0  0  0
   -3.0622   -1.1340  -11.2366 C   0  0  0  0  0  0
   -1.7302   -0.8275  -10.4116 C   0  0  0  0  0  0
   -0.8816    0.4970  -10.5541 C   0  0  0  0  0  0
    0.2635    0.7835   -9.5470 C   0  0  0  0  0  0
    1.0706    2.1225   -9.7586 C   0  0  0  0  0  0
    0.6174    3.3278   -8.9253 C   0  0  0  0  0  0
   -0.0594    4.5196   -9.6601 C   0  0  0  0  0  0
    0.6561    5.8996   -9.7555 C   0  0  0  0  0  0
   -0.0996    7.0060  -10.4783 C   0  0  0  0  0  0
    1.1069    6.3510   -8.4253 N   0  0  0  0  0  0
   -0.1992    4.0734  -11.0331 O   0  0  0  0  0  0
    2.4472    1.8593   -9.4664 O   0  0  0  0  0  0
   -3.8312   -3.2629  -11.9951 O   0  0  0  0  0  0
   -2.9674   -4.4939   -6.3092 O   0  0  0  0  0  0
   -4.1324   -4.7437   -6.9617 C   0  0  0  0  0  0
   -4.8728   -3.9143   -7.4549 O   0  0  0  0  0  0
   -4.3100   -6.2334   -7.0652 C   0  0  0  0  0  0
   -5.0355   -6.6533   -8.3535 C   0  0  0  0  0  0
   -4.9399   -8.1614   -8.6181 C   0  0  0  0  0  0
   -5.5969   -8.5276   -9.9286 C   0  0  0  0  0  0
   -6.8110   -8.6128  -10.0782 O   0  0  0  0  0  0
   -4.7224   -8.7508  -10.9208 O   0  0  0  0  0  0
   -6.5029   -6.2453   -8.1634 C   0  0  0  0  0  0
   -7.3518   -6.9995   -7.7127 O   0  0  0  0  0  0
   -6.7903   -5.0044   -8.5799 O   0  0  0  0  0  0
    0.3508   -2.8017   -6.4390 O   0  0  0  0  0  0
    0.7199   -1.4738   -6.5750 C   0  0  0  0  0  0
    0.0659   -0.5238   -6.1648 O   0  0  0  0  0  0
    2.0590   -1.3120   -7.3063 C   0  0  0  0  0  0
    2.0207   -1.5431   -8.8489 C   0  0  0  0  0  0
    3.3615   -1.6356   -9.6000 C   0  0  0  0  0  0
    4.2610   -0.4615   -9.3413 C   0  0  0  0  0  0
    5.0076   -0.3326   -8.3808 O   0  0  0  0  0  0
    4.1846    0.4661  -10.3077 O   0  0  0  0  0  0
    1.1690   -2.7386   -9.2935 C   0  0  0  0  0  0
    0.7416   -2.8604  -10.4245 O   0  0  0  0  0  0
    1.0098   -3.7113   -8.3717 O   0  0  0  0  0  0
    0.3165    6.3369   -7.7822 H   0  0  0  0  0  0
    1.3776    7.3350   -8.4887 H   0  0  0  0  0  0
   -0.8549    3.3457  -10.9904 H   0  0  0  0  0  0
    2.9728    2.6255   -9.7620 H   0  0  0  0  0  0
   -3.4340   -2.7605  -12.7261 H   0  0  0  0  0  0
   -4.1654   -7.9869  -11.1648 H   0  0  0  0  0  0
   -6.0098   -4.3989   -8.6338 H   0  0  0  0  0  0
    4.6481    1.2618   -9.9710 H   0  0  0  0  0  0
    1.0397   -4.6296   -8.7211 H   0  0  0  0  0  0
  1  2  1  0  0  0
  2  3  1  0  0  0
  3  4  1  0  0  0
  4  5  1  0  0  0
  5  6  1  0  0  0
  5  7  1  0  0  0
  7  8  1  0  0  0
  7 39  1  0  0  0
  8  9  1  0  0  0
  8 27  1  0  0  0
  9 10  1  0  0  0
 10 11  1  0  0  0
 10 12  1  0  0  0
 12 13  1  0  0  0
 13 14  1  0  0  0
 13 26  1  0  0  0
 14 15  1  0  0  0
 15 16  1  0  0  0
 16 17  1  0  0  0
 17 18  1  0  0  0
 18 19  1  0  0  0
 18 25  1  0  0  0
 19 20  1  0  0  0
 20 21  1  0  0  0
 20 24  1  0  0  0
 21 22  1  0  0  0
 21 23  1  0  0  0
 23 51  1  0  0  0
 23 52  1  0  0  0
 24 53  1  0  0  0
 25 54  1  0  0  0
 26 55  1  0  0  0
 27 28  1  0  0  0
 28 29  2  0  0  0
 28 30  1  0  0  0
 30 31  1  0  0  0
 31 32  1  0  0  0
 31 36  1  0  0  0
 32 33  1  0  0  0
 33 34  2  0  0  0
 33 35  1  0  0  0
 35 56  1  0  0  0
 36 37  2  0  0  0
 36 38  1  0  0  0
 38 57  1  0  0  0
 39 40  1  0  0  0
 40 41  2  0  0  0
 40 42  1  0  0  0
 42 43  1  0  0  0
 43 44  1  0  0  0
 43 48  1  0  0  0
 44 45  1  0  0  0
 45 46  2  0  0  0
 45 47  1  0  0  0
 47 58  1  0  0  0
 48 49  2  0  0  0
 48 50  1  0  0  0
 50 59  1  0  0  0
M  END
>  <AUTHOR>
    GENERATED BY OPEN BABEL 2.4.1

>  <CHROM.1>
-108.25187327,106.46782704,-51.07069416,18.29191426,163.69230964,-23.12543714
-146.63902296,159.22649232,-123.37147665,144.31378334,-78.89775844,3.91400136
-140.54093235,-171.73812788,170.42308861,179.69208091,95.83843599,-110.86475907
168.98720415,-112.18871705,-179.15291302,67.25022132,-53.59244677,-54.55234017
-147.18491043,167.05366408,-176.87096138,-92.65590397,-77.21732574,-61.88774632
-21.85603251,7.15135948,74.92481320,-169.63676733,-53.40805604,160.06164753
83.41772284,168.45695016,-140.58970711,-1.55202892,-2.12717220,-8.35631592
3.10400846,-0.93473926,-1.74568866

>  <COMPND>
    UNNAMED

>  <MASTER>
        0    0    0    0    0    0    0    0  109    0  109    0

>  <Name>
FB1.pdb

>  <RI>
0

>  <Rbt.Current_Directory>
/cluster/tossine/FB1_39T3/p3/1_clust02

>  <Rbt.Executable>
rbdock/0.1.0

>  <Rbt.Library>
librxdock.so/0.1.0

>  <Rbt.Parameter_File>
/cluster/rxdock/data/scripts/dock.prm

>  <Rbt.Receptor>
rx_0.prm

>  <SCORE>
118.018

>  <SCORE.INTER>
54.0304

>  <SCORE.INTER.CONST>
1

>  <SCORE.INTER.POLAR>
-1.84942

>  <SCORE.INTER.REPUL>
1.41982

>  <SCORE.INTER.ROT>
32

>  <SCORE.INTER.VDW>
15.8194

>  <SCORE.INTER.norm>
1.08061

>  <SCORE.INTRA>
59.0509

>  <SCORE.INTRA.DIHEDRAL>
81.7807

>  <SCORE.INTRA.DIHEDRAL.0>
47.3121

>  <SCORE.INTRA.POLAR>
0.850235

>  <SCORE.INTRA.POLAR.0>
-1.47808

>  <SCORE.INTRA.REPUL>
0.528185

>  <SCORE.INTRA.REPUL.0>
0

>  <SCORE.INTRA.VDW>
12.6288

>  <SCORE.INTRA.VDW.0>
-2.78316

>  <SCORE.INTRA.norm>
1.18102

>  <SCORE.RESTR>
4.93718

>  <SCORE.RESTR.CAVITY>
4.93718

>  <SCORE.RESTR.norm>
0.0987436

>  <SCORE.SYSTEM>
0

>  <SCORE.SYSTEM.CONST>
0

>  <SCORE.SYSTEM.DIHEDRAL>
0

>  <SCORE.SYSTEM.norm>
0

>  <SCORE.heavy>
50

>  <SCORE.norm>
2.36037

$$$$
