FB1.pdb
  RxDock  10072009123D
librxdock.so/0.1.0
 59 58  0  0  0  0  0  0  0  0999 V2000
   -0.5470    8.3309   -8.6181 C   0  0  0  0  0  0
   -0.4327    7.1307   -9.5549 C   0  0  0  0  0  0
   -0.1160    5.8369   -8.7868 C   0  0  0  0  0  0
    0.5146    4.7323   -9.6710 C   0  0  0  0  0  0
    2.0387    4.4672   -9.4118 C   0  0  0  0  0  0
    2.7949    5.8090   -9.5470 C   0  0  0  0  0  0
    2.3336    3.7886   -8.0080 C   0  0  0  0  0  0
    1.7639    2.3084   -7.7835 C   0  0  0  0  0  0
    0.6583    1.9059   -6.7140 C   0  0  0  0  0  0
    0.8361    0.4039   -6.0555 C   0  0  0  0  0  0
    1.9702    0.4537   -5.0330 C   0  0  0  0  0  0
   -0.4648   -0.2267   -5.3812 C   0  0  0  0  0  0
   -0.5317   -1.7189   -4.7586 C   0  0  0  0  0  0
   -0.7673   -2.9894   -5.6454 C   0  0  0  0  0  0
   -2.1334   -3.0986   -6.4646 C   0  0  0  0  0  0
   -2.4154   -4.1780   -7.5825 C   0  0  0  0  0  0
   -3.3937   -5.3458   -7.2884 C   0  0  0  0  0  0
   -2.9154   -6.4186   -6.2350 C   0  0  0  0  0  0
   -3.7079   -7.7312   -6.1943 C   0  0  0  0  0  0
   -3.3758   -8.7585   -5.0751 C   0  0  0  0  0  0
   -4.2190   -8.8034   -3.7665 C   0  0  0  0  0  0
   -3.8950   -7.7509   -2.7154 C   0  0  0  0  0  0
   -5.6623   -8.8171   -4.0716 N   0  0  0  0  0  0
   -3.5754  -10.0546   -5.6949 O   0  0  0  0  0  0
   -1.5434   -6.7239   -6.5073 O   0  0  0  0  0  0
    0.7529   -1.9218   -4.1462 O   0  0  0  0  0  0
    1.2007    1.8922   -9.0572 O   0  0  0  0  0  0
    1.3761    0.5934   -9.4143 C   0  0  0  0  0  0
    2.2060   -0.1716   -8.9610 O   0  0  0  0  0  0
    0.3016    0.2211  -10.3984 C   0  0  0  0  0  0
   -0.4764   -1.0353   -9.9757 C   0  0  0  0  0  0
   -1.6181   -1.3738  -10.9427 C   0  0  0  0  0  0
   -2.6721   -0.2910  -10.9419 C   0  0  0  0  0  0
   -2.5020    0.8216  -11.4287 O   0  0  0  0  0  0
   -3.8201   -0.6631  -10.3566 O   0  0  0  0  0  0
    0.5483   -2.1780   -9.9522 C   0  0  0  0  0  0
    1.1739   -2.5331  -10.9396 O   0  0  0  0  0  0
    0.6662   -2.7908   -8.7663 O   0  0  0  0  0  0
    3.7711    3.8885   -7.6565 O   0  0  0  0  0  0
    4.1699    3.4870   -6.3924 C   0  0  0  0  0  0
    3.4239    3.0165   -5.5436 O   0  0  0  0  0  0
    5.6722    3.6956   -6.1605 C   0  0  0  0  0  0
    6.1883    5.1575   -6.3370 C   0  0  0  0  0  0
    5.1830    6.3076   -6.1448 C   0  0  0  0  0  0
    5.7544    7.6510   -6.4960 C   0  0  0  0  0  0
    6.7331    8.1683   -5.9753 O   0  0  0  0  0  0
    5.0792    8.2526   -7.4872 O   0  0  0  0  0  0
    7.4317    5.4993   -5.5068 C   0  0  0  0  0  0
    7.5707    5.1499   -4.3513 O   0  0  0  0  0  0
    8.4207    6.1277   -6.1765 O   0  0  0  0  0  0
   -6.1864   -8.9161   -3.2032 H   0  0  0  0  0  0
   -5.8753   -9.6627   -4.6056 H   0  0  0  0  0  0
   -2.8996  -10.0956   -6.4041 H   0  0  0  0  0  0
   -1.2633   -7.4334   -5.9001 H   0  0  0  0  0  0
    0.6667   -2.6404   -3.4975 H   0  0  0  0  0  0
   -4.5112    0.0257  -10.3195 H   0  0  0  0  0  0
    1.2236   -3.6080   -8.7807 H   0  0  0  0  0  0
    4.2930    7.6961   -7.6703 H   0  0  0  0  0  0
    8.2545    6.2693   -7.1349 H   0  0  0  0  0  0
  1  2  1  0  0  0
  2  3  1  0  0  0
  3  4  1  0  0  0
  4  5  1  0  0  0
  5  6  1  0  0  0
  5  7  1  0  0  0
  7  8  1  0  0  0
  7 39  1  0  0  0
  8  9  1  0  0  0
  8 27  1  0  0  0
  9 10  1  0  0  0
 10 11  1  0  0  0
 10 12  1  0  0  0
 12 13  1  0  0  0
 13 14  1  0  0  0
 13 26  1  0  0  0
 14 15  1  0  0  0
 15 16  1  0  0  0
 16 17  1  0  0  0
 17 18  1  0  0  0
 18 19  1  0  0  0
 18 25  1  0  0  0
 19 20  1  0  0  0
 20 21  1  0  0  0
 20 24  1  0  0  0
 21 22  1  0  0  0
 21 23  1  0  0  0
 23 51  1  0  0  0
 23 52  1  0  0  0
 24 53  1  0  0  0
 25 54  1  0  0  0
 26 55  1  0  0  0
 27 28  1  0  0  0
 28 29  2  0  0  0
 28 30  1  0  0  0
 30 31  1  0  0  0
 31 32  1  0  0  0
 31 36  1  0  0  0
 32 33  1  0  0  0
 33 34  2  0  0  0
 33 35  1  0  0  0
 35 56  1  0  0  0
 36 37  2  0  0  0
 36 38  1  0  0  0
 38 57  1  0  0  0
 39 40  1  0  0  0
 40 41  2  0  0  0
 40 42  1  0  0  0
 42 43  1  0  0  0
 43 44  1  0  0  0
 43 48  1  0  0  0
 44 45  1  0  0  0
 45 46  2  0  0  0
 45 47  1  0  0  0
 47 58  1  0  0  0
 48 49  2  0  0  0
 48 50  1  0  0  0
 50 59  1  0  0  0
M  END
>  <AUTHOR>
    GENERATED BY OPEN BABEL 2.4.1

>  <CHROM.1>
-158.68142165,107.98666713,-54.30720589,64.88009189,-115.45690980,172.46492994
-146.12356096,141.96975278,75.92660444,176.17762565,-82.03722961,-61.61786070
159.84441798,169.05696029,107.50677822,-68.72764281,-165.63085905,-173.58557351
-175.94615605,96.49017249,-79.50091480,64.05748201,175.84651468,-18.94737743
-126.61328736,177.09568877,-64.48753551,-60.72646100,71.01659611,178.36523646
171.45929150,2.06927226,57.72616305,24.63925465,-173.28366674,-42.26181402
-59.35201253,6.71837599,-2.27048561,0.79633108,0.35720749,-7.30873917,0.81266887
-0.71060465,-0.64036291

>  <COMPND>
    UNNAMED

>  <MASTER>
        0    0    0    0    0    0    0    0  109    0  109    0

>  <Name>
FB1.pdb

>  <RI>
0

>  <Rbt.Current_Directory>
/cluster/tossine/FB1_39T3/p3/1_clust02

>  <Rbt.Executable>
rbdock/0.1.0

>  <Rbt.Library>
librxdock.so/0.1.0

>  <Rbt.Parameter_File>
/cluster/rxdock/data/scripts/dock.prm

>  <Rbt.Receptor>
rx_3.prm

>  <SCORE>
15.0694

>  <SCORE.INTER>
-5.93094

>  <SCORE.INTER.CONST>
1

>  <SCORE.INTER.POLAR>
-2.16072

>  <SCORE.INTER.REPUL>
0.225862

>  <SCORE.INTER.ROT>
32

>  <SCORE.INTER.VDW>
-37.1138

>  <SCORE.INTER.norm>
-0.118619

>  <SCORE.INTRA>
12.927

>  <SCORE.INTRA.DIHEDRAL>
16.2839

>  <SCORE.INTRA.DIHEDRAL.0>
47.3121

>  <SCORE.INTRA.POLAR>
1.47808

>  <SCORE.INTRA.POLAR.0>
-1.47808

>  <SCORE.INTRA.REPUL>
0

>  <SCORE.INTRA.REPUL.0>
0

>  <SCORE.INTRA.VDW>
-0.240384

>  <SCORE.INTRA.VDW.0>
-2.78316

>  <SCORE.INTRA.norm>
0.258541

>  <SCORE.RESTR>
8.07334

>  <SCORE.RESTR.CAVITY>
8.07334

>  <SCORE.RESTR.norm>
0.161467

>  <SCORE.SYSTEM>
0

>  <SCORE.SYSTEM.CONST>
0

>  <SCORE.SYSTEM.DIHEDRAL>
0

>  <SCORE.SYSTEM.norm>
0

>  <SCORE.heavy>
50

>  <SCORE.norm>
0.301388

$$$$
