FB1.pdb
  RxDock  10072009103D
librxdock.so/0.1.0
 59 58  0  0  0  0  0  0  0  0999 V2000
   -3.3098    5.6831  -10.3914 C   0  0  0  0  0  0
   -2.1719    4.9540  -11.1019 C   0  0  0  0  0  0
   -0.8162    5.6359  -10.8541 C   0  0  0  0  0  0
   -0.0632    5.0823   -9.6187 C   0  0  0  0  0  0
    0.2131    3.5385   -9.6494 C   0  0  0  0  0  0
    0.4004    3.1080  -11.1225 C   0  0  0  0  0  0
    1.4574    3.1003   -8.7675 C   0  0  0  0  0  0
    1.2541    1.8383   -7.8020 C   0  0  0  0  0  0
    1.1117    1.9102   -6.2199 C   0  0  0  0  0  0
    1.5422    0.5357   -5.4157 C   0  0  0  0  0  0
    2.5128    0.9118   -4.2974 C   0  0  0  0  0  0
    0.3455   -0.3320   -4.8160 C   0  0  0  0  0  0
   -0.9041   -0.8791   -5.6866 C   0  0  0  0  0  0
   -1.8811   -1.9821   -5.1529 C   0  0  0  0  0  0
   -3.0033   -2.5422   -6.1408 C   0  0  0  0  0  0
   -3.1692   -4.0652   -6.5251 C   0  0  0  0  0  0
   -4.2605   -4.4815   -7.5465 C   0  0  0  0  0  0
   -3.8622   -4.4135   -9.0716 C   0  0  0  0  0  0
   -2.6399   -5.2391   -9.4920 C   0  0  0  0  0  0
   -1.3618   -5.1663   -8.6092 C   0  0  0  0  0  0
   -1.4661   -5.2478   -7.0575 C   0  0  0  0  0  0
   -1.6359   -6.6385   -6.4620 C   0  0  0  0  0  0
   -0.3455   -4.5332   -6.4172 N   0  0  0  0  0  0
   -0.5822   -6.3271   -8.9946 O   0  0  0  0  0  0
   -4.9892   -4.8448   -9.8420 O   0  0  0  0  0  0
   -1.7299    0.2755   -5.9137 O   0  0  0  0  0  0
    0.0352    1.1811   -8.2434 O   0  0  0  0  0  0
    0.1584    0.2432   -9.2182 C   0  0  0  0  0  0
    0.7458    0.3767  -10.2749 O   0  0  0  0  0  0
   -0.4691   -1.0340   -8.7319 C   0  0  0  0  0  0
   -0.6828   -2.0542   -9.8615 C   0  0  0  0  0  0
   -1.3988   -1.4475  -11.0750 C   0  0  0  0  0  0
   -2.8861   -1.3376  -10.8316 C   0  0  0  0  0  0
   -3.6844   -2.2302  -11.0958 O   0  0  0  0  0  0
   -3.2545   -0.1653  -10.2943 O   0  0  0  0  0  0
    0.7175   -2.5365  -10.2648 C   0  0  0  0  0  0
    1.7443   -2.0723   -9.7931 O   0  0  0  0  0  0
    0.7247   -3.4789  -11.2176 O   0  0  0  0  0  0
    2.6819    2.9736   -9.5948 O   0  0  0  0  0  0
    3.6895    3.9091   -9.4282 C   0  0  0  0  0  0
    4.8666    3.7219   -9.7073 O   0  0  0  0  0  0
    3.1691    5.2305   -8.8473 C   0  0  0  0  0  0
    4.1734    6.4243   -8.8741 C   0  0  0  0  0  0
    3.6011    7.8483   -8.9975 C   0  0  0  0  0  0
    2.5046    8.1274   -8.0105 C   0  0  0  0  0  0
    1.3539    7.7195   -8.0881 O   0  0  0  0  0  0
    2.9203    8.8810   -6.9812 O   0  0  0  0  0  0
    5.1779    6.4388   -7.7152 C   0  0  0  0  0  0
    6.3469    6.7383   -7.8584 O   0  0  0  0  0  0
    4.6567    6.1992   -6.4937 O   0  0  0  0  0  0
   -0.6315   -4.2277   -5.4880 H   0  0  0  0  0  0
   -0.1697   -3.6697   -6.9359 H   0  0  0  0  0  0
   -0.4849   -6.2472   -9.9670 H   0  0  0  0  0  0
   -4.7054   -4.9385  -10.7700 H   0  0  0  0  0  0
   -1.2964    0.8277   -6.5858 H   0  0  0  0  0  0
   -3.9298    0.3295  -10.7969 H   0  0  0  0  0  0
   -0.1711   -3.8166  -11.4671 H   0  0  0  0  0  0
    2.1338    9.0504   -6.4208 H   0  0  0  0  0  0
    3.6898    6.3562   -6.4118 H   0  0  0  0  0  0
  1  2  1  0  0  0
  2  3  1  0  0  0
  3  4  1  0  0  0
  4  5  1  0  0  0
  5  6  1  0  0  0
  5  7  1  0  0  0
  7  8  1  0  0  0
  7 39  1  0  0  0
  8  9  1  0  0  0
  8 27  1  0  0  0
  9 10  1  0  0  0
 10 11  1  0  0  0
 10 12  1  0  0  0
 12 13  1  0  0  0
 13 14  1  0  0  0
 13 26  1  0  0  0
 14 15  1  0  0  0
 15 16  1  0  0  0
 16 17  1  0  0  0
 17 18  1  0  0  0
 18 19  1  0  0  0
 18 25  1  0  0  0
 19 20  1  0  0  0
 20 21  1  0  0  0
 20 24  1  0  0  0
 21 22  1  0  0  0
 21 23  1  0  0  0
 23 51  1  0  0  0
 23 52  1  0  0  0
 24 53  1  0  0  0
 25 54  1  0  0  0
 26 55  1  0  0  0
 27 28  1  0  0  0
 28 29  2  0  0  0
 28 30  1  0  0  0
 30 31  1  0  0  0
 31 32  1  0  0  0
 31 36  1  0  0  0
 32 33  1  0  0  0
 33 34  2  0  0  0
 33 35  1  0  0  0
 35 56  1  0  0  0
 36 37  2  0  0  0
 36 38  1  0  0  0
 38 57  1  0  0  0
 39 40  1  0  0  0
 40 41  2  0  0  0
 40 42  1  0  0  0
 42 43  1  0  0  0
 43 44  1  0  0  0
 43 48  1  0  0  0
 44 45  1  0  0  0
 45 46  2  0  0  0
 45 47  1  0  0  0
 47 58  1  0  0  0
 48 49  2  0  0  0
 48 50  1  0  0  0
 50 59  1  0  0  0
M  END
>  <AUTHOR>
    GENERATED BY OPEN BABEL 2.4.1

>  <CHROM.1>
90.95552274,57.03747007,31.51658449,133.27676013,-106.70460432,109.88609886
-155.33500549,88.18631305,129.64215832,54.71104601,165.91654808,-174.69375377
74.60462517,122.81448922,-177.30635182,86.07624757,57.25980879,-45.90242813
-171.23542932,44.66998480,79.65344995,54.67216804,154.20849510,-50.25234944
166.47241184,-50.32578957,-78.73867837,-4.66092602,-89.02751315,124.06242147
-6.54141622,156.50871987,-169.01358010,149.93426451,49.97083802,139.88149427
-75.94972738,176.98950416,-20.87306077,0.14156682,0.77742346,-8.49720203
0.94334099,-0.70889774,-0.44426454

>  <COMPND>
    UNNAMED

>  <MASTER>
        0    0    0    0    0    0    0    0  109    0  109    0

>  <Name>
FB1.pdb

>  <RI>
0

>  <Rbt.Current_Directory>
/cluster/tossine/FB1_39T3/p3/1_clust02

>  <Rbt.Executable>
rbdock/0.1.0

>  <Rbt.Library>
librxdock.so/0.1.0

>  <Rbt.Parameter_File>
/cluster/rxdock/data/scripts/dock.prm

>  <Rbt.Receptor>
rx_3.prm

>  <SCORE>
62.0607

>  <SCORE.INTER>
10.0443

>  <SCORE.INTER.CONST>
1

>  <SCORE.INTER.POLAR>
-1.86819

>  <SCORE.INTER.REPUL>
0.350271

>  <SCORE.INTER.ROT>
32

>  <SCORE.INTER.VDW>
-22.7553

>  <SCORE.INTER.norm>
0.200885

>  <SCORE.INTRA>
48.03

>  <SCORE.INTRA.DIHEDRAL>
53.7172

>  <SCORE.INTRA.DIHEDRAL.0>
47.3121

>  <SCORE.INTRA.POLAR>
0.493408

>  <SCORE.INTRA.POLAR.0>
-1.47808

>  <SCORE.INTRA.REPUL>
0

>  <SCORE.INTRA.REPUL.0>
0

>  <SCORE.INTRA.VDW>
19.4938

>  <SCORE.INTRA.VDW.0>
-2.78316

>  <SCORE.INTRA.norm>
0.9606

>  <SCORE.RESTR>
3.98646

>  <SCORE.RESTR.CAVITY>
3.98646

>  <SCORE.RESTR.norm>
0.0797293

>  <SCORE.SYSTEM>
0

>  <SCORE.SYSTEM.CONST>
0

>  <SCORE.SYSTEM.DIHEDRAL>
0

>  <SCORE.SYSTEM.norm>
0

>  <SCORE.heavy>
50

>  <SCORE.norm>
1.24121

$$$$
