FB1.pdb
  RxDock  10072009583D
librxdock.so/0.1.0
 59 58  0  0  0  0  0  0  0  0999 V2000
   -5.6314   -7.8184  -12.3401 C   0  0  0  0  0  0
   -4.3635   -8.3122  -11.6472 C   0  0  0  0  0  0
   -4.5912   -8.5502  -10.1453 C   0  0  0  0  0  0
   -4.9199   -7.2572   -9.3580 C   0  0  0  0  0  0
   -4.9911   -7.4309   -7.8007 C   0  0  0  0  0  0
   -5.4448   -8.8767   -7.4937 C   0  0  0  0  0  0
   -3.6268   -7.0954   -7.0631 C   0  0  0  0  0  0
   -2.9011   -5.7257   -7.4672 C   0  0  0  0  0  0
   -3.6434   -4.4033   -7.9453 C   0  0  0  0  0  0
   -3.1738   -3.8318   -9.4198 C   0  0  0  0  0  0
   -4.0917   -4.4278  -10.4859 C   0  0  0  0  0  0
   -3.1306   -2.2450   -9.5776 C   0  0  0  0  0  0
   -1.8099   -1.4104   -9.9995 C   0  0  0  0  0  0
   -0.5766   -1.2509   -9.0457 C   0  0  0  0  0  0
    0.6550   -0.3644   -9.5421 C   0  0  0  0  0  0
    1.9400   -0.0633   -8.6745 C   0  0  0  0  0  0
    1.7775    0.4907   -7.2343 C   0  0  0  0  0  0
    1.0693    1.8936   -7.0938 C   0  0  0  0  0  0
    1.7598    3.0756   -7.7856 C   0  0  0  0  0  0
    1.2210    3.5372   -9.1693 C   0  0  0  0  0  0
    1.2206    5.0460   -9.5552 C   0  0  0  0  0  0
    0.3614    5.9644   -8.6974 C   0  0  0  0  0  0
    2.5987    5.5614   -9.6624 N   0  0  0  0  0  0
    2.0974    2.9029  -10.1354 O   0  0  0  0  0  0
   -0.2579    1.7727   -7.6168 O   0  0  0  0  0  0
   -1.3007   -2.0870  -11.1612 O   0  0  0  0  0  0
   -2.1402   -5.3095   -6.3009 O   0  0  0  0  0  0
   -1.2118   -4.3352   -6.4855 C   0  0  0  0  0  0
   -0.7035   -4.0171   -7.5437 O   0  0  0  0  0  0
   -0.9858   -3.6381   -5.1723 C   0  0  0  0  0  0
   -2.2247   -2.8643   -4.6939 C   0  0  0  0  0  0
   -2.0394   -2.2637   -3.2945 C   0  0  0  0  0  0
   -3.3546   -2.1914   -2.5539 C   0  0  0  0  0  0
   -4.2841   -1.4663   -2.8913 O   0  0  0  0  0  0
   -3.4118   -3.0013   -1.4863 O   0  0  0  0  0  0
   -2.4456   -1.7451   -5.7208 C   0  0  0  0  0  0
   -3.1192   -1.8891   -6.7297 O   0  0  0  0  0  0
   -1.7960   -0.6057   -5.4454 O   0  0  0  0  0  0
   -3.7639   -7.2374   -5.5931 O   0  0  0  0  0  0
   -3.6562   -8.5027   -5.0403 C   0  0  0  0  0  0
   -3.0455   -9.4345   -5.5474 O   0  0  0  0  0  0
   -4.3945   -8.6191   -3.7003 C   0  0  0  0  0  0
   -5.4174   -9.7922   -3.5902 C   0  0  0  0  0  0
   -5.9152  -10.1887   -2.1883 C   0  0  0  0  0  0
   -4.8631  -10.0371   -1.1277 C   0  0  0  0  0  0
   -5.0597  -10.0524    0.0796 O   0  0  0  0  0  0
   -3.6321   -9.8958   -1.6425 O   0  0  0  0  0  0
   -6.6542   -9.6458   -4.4853 C   0  0  0  0  0  0
   -6.8361  -10.3252   -5.4763 O   0  0  0  0  0  0
   -7.5908   -8.7809   -4.0426 O   0  0  0  0  0  0
    2.5713    6.5182  -10.0119 H   0  0  0  0  0  0
    3.0905    5.0309  -10.3851 H   0  0  0  0  0  0
    2.0079    1.9430   -9.9567 H   0  0  0  0  0  0
   -0.6662    0.9765   -7.2294 H   0  0  0  0  0  0
   -2.0583   -2.4105  -11.6770 H   0  0  0  0  0  0
   -2.5623   -3.4045   -1.2232 H   0  0  0  0  0  0
   -2.0392    0.1560   -6.0280 H   0  0  0  0  0  0
   -3.0242   -9.7613   -0.8851 H   0  0  0  0  0  0
   -7.2502   -7.9054   -3.7532 H   0  0  0  0  0  0
  1  2  1  0  0  0
  2  3  1  0  0  0
  3  4  1  0  0  0
  4  5  1  0  0  0
  5  6  1  0  0  0
  5  7  1  0  0  0
  7  8  1  0  0  0
  7 39  1  0  0  0
  8  9  1  0  0  0
  8 27  1  0  0  0
  9 10  1  0  0  0
 10 11  1  0  0  0
 10 12  1  0  0  0
 12 13  1  0  0  0
 13 14  1  0  0  0
 13 26  1  0  0  0
 14 15  1  0  0  0
 15 16  1  0  0  0
 16 17  1  0  0  0
 17 18  1  0  0  0
 18 19  1  0  0  0
 18 25  1  0  0  0
 19 20  1  0  0  0
 20 21  1  0  0  0
 20 24  1  0  0  0
 21 22  1  0  0  0
 21 23  1  0  0  0
 23 51  1  0  0  0
 23 52  1  0  0  0
 24 53  1  0  0  0
 25 54  1  0  0  0
 26 55  1  0  0  0
 27 28  1  0  0  0
 28 29  2  0  0  0
 28 30  1  0  0  0
 30 31  1  0  0  0
 31 32  1  0  0  0
 31 36  1  0  0  0
 32 33  1  0  0  0
 33 34  2  0  0  0
 33 35  1  0  0  0
 35 56  1  0  0  0
 36 37  2  0  0  0
 36 38  1  0  0  0
 38 57  1  0  0  0
 39 40  1  0  0  0
 40 41  2  0  0  0
 40 42  1  0  0  0
 42 43  1  0  0  0
 43 44  1  0  0  0
 43 48  1  0  0  0
 44 45  1  0  0  0
 45 46  2  0  0  0
 45 47  1  0  0  0
 47 58  1  0  0  0
 48 49  2  0  0  0
 48 50  1  0  0  0
 50 59  1  0  0  0
M  END
>  <AUTHOR>
    GENERATED BY OPEN BABEL 2.4.1

>  <CHROM.1>
-64.76821062,-173.08236855,-29.42362611,48.04961822,30.83087509,82.11820391
-123.30264845,166.05739435,92.08471000,122.27572375,-70.06491672,-177.93528015
35.40524780,177.44997760,-51.44663918,-61.85645758,-61.00712617,99.49285389
48.48591184,144.49654477,-62.77180986,58.80636569,173.97306967,-20.45741940
-66.18253467,174.59423797,-149.18925032,88.43822962,-66.44143187,10.79667827
-171.43899895,25.18352929,126.78140977,164.51684358,-34.59758215,107.92839393
166.14768134,177.33897062,47.70794249,-2.55951276,-3.90611795,-6.73003437
2.85875844,1.09680463,1.53866333

>  <COMPND>
    UNNAMED

>  <MASTER>
        0    0    0    0    0    0    0    0  109    0  109    0

>  <Name>
FB1.pdb

>  <RI>
0

>  <Rbt.Current_Directory>
/cluster/tossine/FB1_39T3/p3/1_clust02

>  <Rbt.Executable>
rbdock/0.1.0

>  <Rbt.Library>
librxdock.so/0.1.0

>  <Rbt.Parameter_File>
/cluster/rxdock/data/scripts/dock.prm

>  <Rbt.Receptor>
rx_4.prm

>  <SCORE>
38.932

>  <SCORE.INTER>
10.7985

>  <SCORE.INTER.CONST>
1

>  <SCORE.INTER.POLAR>
-3.65005

>  <SCORE.INTER.REPUL>
0.591406

>  <SCORE.INTER.ROT>
32

>  <SCORE.INTER.VDW>
-17.1483

>  <SCORE.INTER.norm>
0.21597

>  <SCORE.INTRA>
26.8297

>  <SCORE.INTRA.DIHEDRAL>
30.6244

>  <SCORE.INTRA.DIHEDRAL.0>
47.3121

>  <SCORE.INTRA.POLAR>
1.47032

>  <SCORE.INTRA.POLAR.0>
-1.47808

>  <SCORE.INTRA.REPUL>
0.00133859

>  <SCORE.INTRA.REPUL.0>
0

>  <SCORE.INTRA.VDW>
6.51177

>  <SCORE.INTRA.VDW.0>
-2.78316

>  <SCORE.INTRA.norm>
0.536595

>  <SCORE.RESTR>
1.30373

>  <SCORE.RESTR.CAVITY>
1.30373

>  <SCORE.RESTR.norm>
0.0260745

>  <SCORE.SYSTEM>
0

>  <SCORE.SYSTEM.CONST>
0

>  <SCORE.SYSTEM.DIHEDRAL>
0

>  <SCORE.SYSTEM.norm>
0

>  <SCORE.heavy>
50

>  <SCORE.norm>
0.778639

$$$$
