FB1.pdb
  RxDock  10072008073D
librxdock.so/0.1.0
 59 58  0  0  0  0  0  0  0  0999 V2000
   -5.2457   -9.9735  -10.4486 C   0  0  0  0  0  0
   -5.9604  -10.0493   -9.1015 C   0  0  0  0  0  0
   -5.2530   -9.1995   -8.0330 C   0  0  0  0  0  0
   -5.6095   -7.6938   -8.1059 C   0  0  0  0  0  0
   -5.2722   -6.9995   -9.4715 C   0  0  0  0  0  0
   -6.5216   -7.0802  -10.3788 C   0  0  0  0  0  0
   -4.7809   -5.4989   -9.3145 C   0  0  0  0  0  0
   -3.3514   -5.2713   -8.6282 C   0  0  0  0  0  0
   -2.0310   -4.8218   -9.3916 C   0  0  0  0  0  0
   -1.0423   -3.8103   -8.5428 C   0  0  0  0  0  0
   -0.6771   -4.4850   -7.2215 C   0  0  0  0  0  0
    0.2870   -3.3381   -9.2875 C   0  0  0  0  0  0
    1.0853   -1.9736   -8.9416 C   0  0  0  0  0  0
    0.6560   -0.5803   -9.5165 C   0  0  0  0  0  0
    1.2400   -0.1332  -10.9336 C   0  0  0  0  0  0
    1.6728    1.3433  -11.2906 C   0  0  0  0  0  0
    2.4579    2.1830  -10.2486 C   0  0  0  0  0  0
    1.6087    2.8620   -9.1053 C   0  0  0  0  0  0
    2.3151    3.9532   -8.2912 C   0  0  0  0  0  0
    2.5122    5.3502   -8.9454 C   0  0  0  0  0  0
    1.5018    6.5028   -8.6698 C   0  0  0  0  0  0
    1.6583    7.7579   -9.5168 C   0  0  0  0  0  0
    0.1133    6.0063   -8.7144 N   0  0  0  0  0  0
    3.7776    5.8267   -8.4204 O   0  0  0  0  0  0
    0.4364    3.4270   -9.7021 O   0  0  0  0  0  0
    0.9838   -1.8379   -7.5141 O   0  0  0  0  0  0
   -3.5460   -4.2491   -7.6135 O   0  0  0  0  0  0
   -3.4076   -4.6321   -6.3176 C   0  0  0  0  0  0
   -3.0329   -5.7208   -5.9253 O   0  0  0  0  0  0
   -3.6987   -3.4480   -5.4375 C   0  0  0  0  0  0
   -2.5232   -3.0978   -4.5111 C   0  0  0  0  0  0
   -1.4043   -2.3425   -5.2397 C   0  0  0  0  0  0
   -1.9695   -1.2855   -6.1598 C   0  0  0  0  0  0
   -2.3878   -1.5216   -7.2880 O   0  0  0  0  0  0
   -1.9729   -0.0563   -5.6231 O   0  0  0  0  0  0
   -3.1108   -2.2200   -3.3975 C   0  0  0  0  0  0
   -3.9106   -1.3211   -3.6089 O   0  0  0  0  0  0
   -2.6358   -2.4879   -2.1734 O   0  0  0  0  0  0
   -4.9060   -4.7580  -10.5934 O   0  0  0  0  0  0
   -6.0097   -3.9417  -10.7769 C   0  0  0  0  0  0
   -7.1138   -4.1433  -10.2884 O   0  0  0  0  0  0
   -5.7006   -2.7345  -11.6721 C   0  0  0  0  0  0
   -4.3174   -2.0524  -11.4357 C   0  0  0  0  0  0
   -3.3372   -1.9746  -12.6205 C   0  0  0  0  0  0
   -4.0078   -1.6103  -13.9135 C   0  0  0  0  0  0
   -4.0636   -2.3153  -14.9117 O   0  0  0  0  0  0
   -4.5817   -0.3982  -13.8704 O   0  0  0  0  0  0
   -4.3950   -0.6501  -10.8193 C   0  0  0  0  0  0
   -5.1909    0.1905  -11.1891 O   0  0  0  0  0  0
   -3.5890   -0.4383   -9.7578 O   0  0  0  0  0  0
   -0.3502    6.2308   -7.8351 H   0  0  0  0  0  0
    0.1327    4.9845   -8.7486 H   0  0  0  0  0  0
    3.9730    6.6335   -8.9421 H   0  0  0  0  0  0
    0.7055    3.9047  -10.5083 H   0  0  0  0  0  0
    1.3449   -2.6441   -7.1089 H   0  0  0  0  0  0
   -1.2700    0.1137   -4.9669 H   0  0  0  0  0  0
   -1.8632   -3.1057   -2.1595 H   0  0  0  0  0  0
   -5.0270   -0.2669  -14.7339 H   0  0  0  0  0  0
   -3.2209   -1.2494   -9.3420 H   0  0  0  0  0  0
  1  2  1  0  0  0
  2  3  1  0  0  0
  3  4  1  0  0  0
  4  5  1  0  0  0
  5  6  1  0  0  0
  5  7  1  0  0  0
  7  8  1  0  0  0
  7 39  1  0  0  0
  8  9  1  0  0  0
  8 27  1  0  0  0
  9 10  1  0  0  0
 10 11  1  0  0  0
 10 12  1  0  0  0
 12 13  1  0  0  0
 13 14  1  0  0  0
 13 26  1  0  0  0
 14 15  1  0  0  0
 15 16  1  0  0  0
 16 17  1  0  0  0
 17 18  1  0  0  0
 18 19  1  0  0  0
 18 25  1  0  0  0
 19 20  1  0  0  0
 20 21  1  0  0  0
 20 24  1  0  0  0
 21 22  1  0  0  0
 21 23  1  0  0  0
 23 51  1  0  0  0
 23 52  1  0  0  0
 24 53  1  0  0  0
 25 54  1  0  0  0
 26 55  1  0  0  0
 27 28  1  0  0  0
 28 29  2  0  0  0
 28 30  1  0  0  0
 30 31  1  0  0  0
 31 32  1  0  0  0
 31 36  1  0  0  0
 32 33  1  0  0  0
 33 34  2  0  0  0
 33 35  1  0  0  0
 35 56  1  0  0  0
 36 37  2  0  0  0
 36 38  1  0  0  0
 38 57  1  0  0  0
 39 40  1  0  0  0
 40 41  2  0  0  0
 40 42  1  0  0  0
 42 43  1  0  0  0
 43 44  1  0  0  0
 43 48  1  0  0  0
 44 45  1  0  0  0
 45 46  2  0  0  0
 45 47  1  0  0  0
 47 58  1  0  0  0
 48 49  2  0  0  0
 48 50  1  0  0  0
 50 59  1  0  0  0
M  END
>  <AUTHOR>
    GENERATED BY OPEN BABEL 2.4.1

>  <CHROM.1>
81.23991556,-58.89753962,92.02009074,68.54098952,107.25691584,98.81949884
143.89261725,112.88499413,56.32767580,155.35926816,-82.23146391,-87.88478137
56.55006668,-141.81528824,41.75854205,-80.43573240,-165.53691359,75.58613430
-45.53042888,96.11102270,-170.93127670,170.94444225,124.03362913,6.26522766
-122.23175986,77.89372511,42.78521101,-43.18514287,-82.15210891,28.85398553
9.76882375,-30.86012425,-40.44364113,121.29085438,41.99789030,-43.89991480
-117.20905261,-177.29914571,-15.59346415,-2.27273717,-1.83460050,-8.84742308
2.73712405,0.96426385,2.04643702

>  <COMPND>
    UNNAMED

>  <MASTER>
        0    0    0    0    0    0    0    0  109    0  109    0

>  <Name>
FB1.pdb

>  <RI>
0

>  <Rbt.Current_Directory>
/cluster/tossine/FB1_39T3/p3/1_clust02

>  <Rbt.Executable>
rbdock/0.1.0

>  <Rbt.Library>
librxdock.so/0.1.0

>  <Rbt.Parameter_File>
/cluster/rxdock/data/scripts/dock.prm

>  <Rbt.Receptor>
rx_1.prm

>  <SCORE>
24.3874

>  <SCORE.INTER>
1.07935

>  <SCORE.INTER.CONST>
1

>  <SCORE.INTER.POLAR>
-1.9984

>  <SCORE.INTER.REPUL>
0.526757

>  <SCORE.INTER.ROT>
32

>  <SCORE.INTER.VDW>
-32.1599

>  <SCORE.INTER.norm>
0.0215869

>  <SCORE.INTRA>
22.2279

>  <SCORE.INTRA.DIHEDRAL>
38.6597

>  <SCORE.INTRA.DIHEDRAL.0>
47.3121

>  <SCORE.INTRA.POLAR>
0.377499

>  <SCORE.INTRA.POLAR.0>
-1.47808

>  <SCORE.INTRA.REPUL>
0

>  <SCORE.INTRA.REPUL.0>
0

>  <SCORE.INTRA.VDW>
1.61452

>  <SCORE.INTRA.VDW.0>
-2.78316

>  <SCORE.INTRA.norm>
0.444558

>  <SCORE.RESTR>
1.08013

>  <SCORE.RESTR.CAVITY>
1.08013

>  <SCORE.RESTR.norm>
0.0216027

>  <SCORE.SYSTEM>
0

>  <SCORE.SYSTEM.CONST>
0

>  <SCORE.SYSTEM.DIHEDRAL>
0

>  <SCORE.SYSTEM.norm>
0

>  <SCORE.heavy>
50

>  <SCORE.norm>
0.487747

$$$$
