FB1.pdb
  RxDock  10072008363D
librxdock.so/0.1.0
 59 58  0  0  0  0  0  0  0  0999 V2000
    1.1668    1.8510   -8.9599 C   0  0  0  0  0  0
    1.3541    0.7062   -7.9670 C   0  0  0  0  0  0
    0.3836   -0.4535   -8.2455 C   0  0  0  0  0  0
    0.8204   -1.3540   -9.4278 C   0  0  0  0  0  0
    0.1022   -2.7467   -9.4992 C   0  0  0  0  0  0
    0.5761   -3.5995   -8.2997 C   0  0  0  0  0  0
   -1.4808   -2.6419   -9.5307 C   0  0  0  0  0  0
   -2.2639   -3.0850   -8.2053 C   0  0  0  0  0  0
   -2.8041   -2.0925   -7.0867 C   0  0  0  0  0  0
   -1.8429   -1.9516   -5.7534 C   0  0  0  0  0  0
   -1.6182   -0.4668   -5.4721 C   0  0  0  0  0  0
   -2.3656   -2.6735   -4.4304 C   0  0  0  0  0  0
   -3.8339   -2.4432   -3.7905 C   0  0  0  0  0  0
   -4.2035   -2.9177   -2.3433 C   0  0  0  0  0  0
   -3.3591   -4.1093   -1.6982 C   0  0  0  0  0  0
   -3.9901   -5.4460   -1.1417 C   0  0  0  0  0  0
   -3.6892   -6.7894   -1.8572 C   0  0  0  0  0  0
   -3.6899   -8.0844   -0.9561 C   0  0  0  0  0  0
   -4.3301   -9.3371   -1.5672 C   0  0  0  0  0  0
   -4.1609  -10.6907   -0.8206 C   0  0  0  0  0  0
   -4.5890  -10.8310    0.6702 C   0  0  0  0  0  0
   -4.1531  -12.1034    1.3833 C   0  0  0  0  0  0
   -4.2028   -9.6350    1.4427 N   0  0  0  0  0  0
   -5.0098  -11.6181   -1.5439 O   0  0  0  0  0  0
   -2.3324   -8.3871   -0.6166 O   0  0  0  0  0  0
   -4.0103   -1.0166   -3.7741 O   0  0  0  0  0  0
   -3.4470   -3.8011   -8.6527 O   0  0  0  0  0  0
   -3.7382   -4.9673   -8.0199 C   0  0  0  0  0  0
   -3.1511   -5.4317   -7.0612 O   0  0  0  0  0  0
   -4.9793   -5.5480   -8.6395 C   0  0  0  0  0  0
   -4.8365   -7.0456   -8.9547 C   0  0  0  0  0  0
   -6.1008   -7.8430   -8.6094 C   0  0  0  0  0  0
   -5.9560   -8.5453   -7.2794 C   0  0  0  0  0  0
   -4.8743   -8.7968   -6.7594 O   0  0  0  0  0  0
   -7.1291   -8.8689   -6.7154 O   0  0  0  0  0  0
   -4.5544   -7.1346  -10.4609 C   0  0  0  0  0  0
   -3.5292   -7.6145  -10.9202 O   0  0  0  0  0  0
   -5.5067   -6.5957  -11.2347 O   0  0  0  0  0  0
   -1.9197   -1.3105  -10.0149 O   0  0  0  0  0  0
   -3.1883   -1.1920  -10.5579 C   0  0  0  0  0  0
   -4.0843   -2.0145  -10.4202 O   0  0  0  0  0  0
   -3.3593    0.1017  -11.3651 C   0  0  0  0  0  0
   -4.6698    0.9028  -11.0911 C   0  0  0  0  0  0
   -4.6947    2.3972  -11.4608 C   0  0  0  0  0  0
   -4.0088    2.6906  -12.7639 C   0  0  0  0  0  0
   -4.4190    2.3766  -13.8728 O   0  0  0  0  0  0
   -2.8655    3.3735  -12.5996 O   0  0  0  0  0  0
   -5.9382    0.2702  -11.6769 C   0  0  0  0  0  0
   -5.9578   -0.8455  -12.1582 O   0  0  0  0  0  0
   -7.0681    0.9931  -11.5281 O   0  0  0  0  0  0
   -4.8110   -8.8594    1.1838 H   0  0  0  0  0  0
   -3.2670   -9.3450    1.1498 H   0  0  0  0  0  0
   -4.6517  -12.5037   -1.3232 H   0  0  0  0  0  0
   -1.8333   -8.5158   -1.4442 H   0  0  0  0  0  0
   -4.9643   -0.8317   -3.7582 H   0  0  0  0  0  0
   -7.9180   -8.4901   -7.1485 H   0  0  0  0  0  0
   -6.3209   -6.3154  -10.7476 H   0  0  0  0  0  0
   -2.7164    3.4441  -11.6331 H   0  0  0  0  0  0
   -7.8927    0.5490  -11.8264 H   0  0  0  0  0  0
  1  2  1  0  0  0
  2  3  1  0  0  0
  3  4  1  0  0  0
  4  5  1  0  0  0
  5  6  1  0  0  0
  5  7  1  0  0  0
  7  8  1  0  0  0
  7 39  1  0  0  0
  8  9  1  0  0  0
  8 27  1  0  0  0
  9 10  1  0  0  0
 10 11  1  0  0  0
 10 12  1  0  0  0
 12 13  1  0  0  0
 13 14  1  0  0  0
 13 26  1  0  0  0
 14 15  1  0  0  0
 15 16  1  0  0  0
 16 17  1  0  0  0
 17 18  1  0  0  0
 18 19  1  0  0  0
 18 25  1  0  0  0
 19 20  1  0  0  0
 20 21  1  0  0  0
 20 24  1  0  0  0
 21 22  1  0  0  0
 21 23  1  0  0  0
 23 51  1  0  0  0
 23 52  1  0  0  0
 24 53  1  0  0  0
 25 54  1  0  0  0
 26 55  1  0  0  0
 27 28  1  0  0  0
 28 29  2  0  0  0
 28 30  1  0  0  0
 30 31  1  0  0  0
 31 32  1  0  0  0
 31 36  1  0  0  0
 32 33  1  0  0  0
 33 34  2  0  0  0
 33 35  1  0  0  0
 35 56  1  0  0  0
 36 37  2  0  0  0
 36 38  1  0  0  0
 38 57  1  0  0  0
 39 40  1  0  0  0
 40 41  2  0  0  0
 40 42  1  0  0  0
 42 43  1  0  0  0
 43 44  1  0  0  0
 43 48  1  0  0  0
 44 45  1  0  0  0
 45 46  2  0  0  0
 45 47  1  0  0  0
 47 58  1  0  0  0
 48 49  2  0  0  0
 48 50  1  0  0  0
 50 59  1  0  0  0
M  END
>  <AUTHOR>
    GENERATED BY OPEN BABEL 2.4.1

>  <CHROM.1>
78.25230874,163.85017106,-68.35922448,-107.88054202,98.31482685,157.07321227
-99.02643430,134.60359606,129.96234496,-53.30060567,-166.46337750,-23.66876750
156.80305635,-124.18672618,113.35779985,150.25035391,139.72687490,170.54053373
-58.43889503,55.08569784,-169.12969400,158.36968519,72.56307289,4.74296959
133.19356915,138.72123286,-99.54418256,118.77881116,-21.19798670,-9.53285640
-7.52424594,16.37199483,-134.04884824,159.01339281,40.34624479,9.37633135
70.15148878,5.09249104,-174.38767434,-3.49731931,-3.94870395,-7.03839051
-1.42125431,1.00306630,2.23150878

>  <COMPND>
    UNNAMED

>  <MASTER>
        0    0    0    0    0    0    0    0  109    0  109    0

>  <Name>
FB1.pdb

>  <RI>
0

>  <Rbt.Current_Directory>
/cluster/tossine/FB1_39T3/p3/1_clust02

>  <Rbt.Executable>
rbdock/0.1.0

>  <Rbt.Library>
librxdock.so/0.1.0

>  <Rbt.Parameter_File>
/cluster/rxdock/data/scripts/dock.prm

>  <Rbt.Receptor>
rx_2.prm

>  <SCORE>
23.6301

>  <SCORE.INTER>
-0.252388

>  <SCORE.INTER.CONST>
1

>  <SCORE.INTER.POLAR>
-4.19782

>  <SCORE.INTER.REPUL>
0.958698

>  <SCORE.INTER.ROT>
32

>  <SCORE.INTER.VDW>
-28.1733

>  <SCORE.INTER.norm>
-0.00504775

>  <SCORE.INTRA>
23.871

>  <SCORE.INTRA.DIHEDRAL>
37.5637

>  <SCORE.INTRA.DIHEDRAL.0>
47.3121

>  <SCORE.INTRA.POLAR>
0.928826

>  <SCORE.INTRA.POLAR.0>
-1.47808

>  <SCORE.INTRA.REPUL>
0

>  <SCORE.INTRA.REPUL.0>
0

>  <SCORE.INTRA.VDW>
1.93112

>  <SCORE.INTRA.VDW.0>
-2.78316

>  <SCORE.INTRA.norm>
0.477419

>  <SCORE.RESTR>
0.011476

>  <SCORE.RESTR.CAVITY>
0.011476

>  <SCORE.RESTR.norm>
0.000229521

>  <SCORE.SYSTEM>
0

>  <SCORE.SYSTEM.CONST>
0

>  <SCORE.SYSTEM.DIHEDRAL>
0

>  <SCORE.SYSTEM.norm>
0

>  <SCORE.heavy>
50

>  <SCORE.norm>
0.472601

$$$$
