FB1.pdb
  RxDock  10072008053D
librxdock.so/0.1.0
 59 58  0  0  0  0  0  0  0  0999 V2000
   -5.8097  -10.5332   -3.3702 C   0  0  0  0  0  0
   -4.9826   -9.6394   -4.2912 C   0  0  0  0  0  0
   -5.4373   -9.7548   -5.7555 C   0  0  0  0  0  0
   -4.9630   -8.5779   -6.6441 C   0  0  0  0  0  0
   -5.8333   -8.3227   -7.9239 C   0  0  0  0  0  0
   -7.2788   -8.0090   -7.4736 C   0  0  0  0  0  0
   -5.2665   -7.1700   -8.8556 C   0  0  0  0  0  0
   -6.1421   -6.7771  -10.1382 C   0  0  0  0  0  0
   -6.3150   -5.3043  -10.7118 C   0  0  0  0  0  0
   -7.6181   -4.4759  -10.1311 C   0  0  0  0  0  0
   -8.8542   -4.8995  -10.9226 C   0  0  0  0  0  0
   -7.9063   -4.6242   -8.5691 C   0  0  0  0  0  0
   -9.2355   -4.0654   -7.8344 C   0  0  0  0  0  0
   -9.9125   -2.7111   -8.2389 C   0  0  0  0  0  0
  -11.0050   -2.0872   -7.2557 C   0  0  0  0  0  0
  -12.2295   -2.8901   -6.6638 C   0  0  0  0  0  0
  -11.9994   -3.8824   -5.4934 C   0  0  0  0  0  0
  -11.7226   -3.2486   -4.0753 C   0  0  0  0  0  0
  -12.9018   -2.5261   -3.4121 C   0  0  0  0  0  0
  -12.6974   -1.9335   -1.9890 C   0  0  0  0  0  0
  -13.8555   -1.1781   -1.2724 C   0  0  0  0  0  0
  -13.5378   -0.5928    0.0965 C   0  0  0  0  0  0
  -14.4442   -0.1564   -2.1590 N   0  0  0  0  0  0
  -12.4222   -3.0830   -1.1482 O   0  0  0  0  0  0
  -11.2811   -4.2943   -3.2028 O   0  0  0  0  0  0
  -10.2369   -5.0700   -8.0681 O   0  0  0  0  0  0
   -5.5951   -7.5349  -11.2513 O   0  0  0  0  0  0
   -4.3761   -8.1058  -11.0690 C   0  0  0  0  0  0
   -3.2985   -7.5540  -11.1856 O   0  0  0  0  0  0
   -4.5783   -9.5190  -10.5963 C   0  0  0  0  0  0
   -4.8477  -10.4954  -11.7524 C   0  0  0  0  0  0
   -3.9421  -10.2379  -12.9635 C   0  0  0  0  0  0
   -4.3926   -9.0168  -13.7312 C   0  0  0  0  0  0
   -5.4977   -8.5021  -13.5990 O   0  0  0  0  0  0
   -3.4641   -8.5439  -14.5756 O   0  0  0  0  0  0
   -4.5852  -11.8989  -11.1891 C   0  0  0  0  0  0
   -5.4639  -12.6020  -10.7140 O   0  0  0  0  0  0
   -3.2987  -12.2736  -11.2154 O   0  0  0  0  0  0
   -4.8830   -5.9784   -8.0600 O   0  0  0  0  0  0
   -3.8609   -5.1718   -8.5321 C   0  0  0  0  0  0
   -3.3370   -5.2842   -9.6326 O   0  0  0  0  0  0
   -3.4448   -4.1013   -7.5146 C   0  0  0  0  0  0
   -1.9600   -4.1599   -7.0388 C   0  0  0  0  0  0
   -0.8953   -3.4602   -7.9033 C   0  0  0  0  0  0
   -0.5948   -4.1987   -9.1756 C   0  0  0  0  0  0
   -0.4565   -5.4096   -9.2822 O   0  0  0  0  0  0
   -0.5059   -3.3804  -10.2352 O   0  0  0  0  0  0
   -1.7362   -3.7075   -5.5905 C   0  0  0  0  0  0
   -2.6421   -3.3543   -4.8617 O   0  0  0  0  0  0
   -0.4716   -3.8277   -5.1348 O   0  0  0  0  0  0
  -13.7650    0.0954   -2.8758 H   0  0  0  0  0  0
  -14.5880    0.7004   -1.6198 H   0  0  0  0  0  0
  -11.5786   -3.4445   -1.4931 H   0  0  0  0  0  0
  -10.3565   -4.5074   -3.4269 H   0  0  0  0  0  0
   -9.9746   -5.8733   -7.5881 H   0  0  0  0  0  0
   -3.7499   -7.7937  -15.1314 H   0  0  0  0  0  0
   -3.1213  -13.1592  -10.8116 H   0  0  0  0  0  0
   -0.5057   -3.9513  -11.0323 H   0  0  0  0  0  0
   -0.3601   -3.6976   -4.1669 H   0  0  0  0  0  0
  1  2  1  0  0  0
  2  3  1  0  0  0
  3  4  1  0  0  0
  4  5  1  0  0  0
  5  6  1  0  0  0
  5  7  1  0  0  0
  7  8  1  0  0  0
  7 39  1  0  0  0
  8  9  1  0  0  0
  8 27  1  0  0  0
  9 10  1  0  0  0
 10 11  1  0  0  0
 10 12  1  0  0  0
 12 13  1  0  0  0
 13 14  1  0  0  0
 13 26  1  0  0  0
 14 15  1  0  0  0
 15 16  1  0  0  0
 16 17  1  0  0  0
 17 18  1  0  0  0
 18 19  1  0  0  0
 18 25  1  0  0  0
 19 20  1  0  0  0
 20 21  1  0  0  0
 20 24  1  0  0  0
 21 22  1  0  0  0
 21 23  1  0  0  0
 23 51  1  0  0  0
 23 52  1  0  0  0
 24 53  1  0  0  0
 25 54  1  0  0  0
 26 55  1  0  0  0
 27 28  1  0  0  0
 28 29  2  0  0  0
 28 30  1  0  0  0
 30 31  1  0  0  0
 31 32  1  0  0  0
 31 36  1  0  0  0
 32 33  1  0  0  0
 33 34  2  0  0  0
 33 35  1  0  0  0
 35 56  1  0  0  0
 36 37  2  0  0  0
 36 38  1  0  0  0
 38 57  1  0  0  0
 39 40  1  0  0  0
 40 41  2  0  0  0
 40 42  1  0  0  0
 42 43  1  0  0  0
 43 44  1  0  0  0
 43 48  1  0  0  0
 44 45  1  0  0  0
 45 46  2  0  0  0
 45 47  1  0  0  0
 47 58  1  0  0  0
 48 49  2  0  0  0
 48 50  1  0  0  0
 50 59  1  0  0  0
M  END
>  <AUTHOR>
    GENERATED BY OPEN BABEL 2.4.1

>  <CHROM.1>
161.73821741,-156.18188818,59.90633310,-176.21598476,143.37753670,150.66154191
-92.25123919,-14.53373630,-82.19681426,-171.40386677,-37.34831101,-166.36140855
66.77674125,-49.98668510,76.81338907,73.29047572,69.01497757,177.58908101
75.63390474,179.42940409,-177.86183683,63.81660167,-22.39878352,-82.13553529
82.60085203,42.09336925,-75.38317946,93.49963698,-16.17979665,175.83214460
177.09410767,8.13285540,119.58666388,84.82856437,-73.33333572,1.26042856
-42.59001490,-167.94402443,-169.16352283,-6.43547237,-5.88145377,-7.83119449
2.31404558,0.13839682,0.77968282

>  <COMPND>
    UNNAMED

>  <MASTER>
        0    0    0    0    0    0    0    0  109    0  109    0

>  <Name>
FB1.pdb

>  <RI>
0

>  <Rbt.Current_Directory>
/cluster/tossine/FB1_39T3/p3/1_clust02

>  <Rbt.Executable>
rbdock/0.1.0

>  <Rbt.Library>
librxdock.so/0.1.0

>  <Rbt.Parameter_File>
/cluster/rxdock/data/scripts/dock.prm

>  <Rbt.Receptor>
rx_1.prm

>  <SCORE>
21.7513

>  <SCORE.INTER>
3.54503

>  <SCORE.INTER.CONST>
1

>  <SCORE.INTER.POLAR>
-2.5339

>  <SCORE.INTER.REPUL>
0.96566

>  <SCORE.INTER.ROT>
32

>  <SCORE.INTER.VDW>
-30.068

>  <SCORE.INTER.norm>
0.0709005

>  <SCORE.INTRA>
16.6337

>  <SCORE.INTRA.DIHEDRAL>
23.6517

>  <SCORE.INTRA.DIHEDRAL.0>
47.3121

>  <SCORE.INTRA.POLAR>
0.96347

>  <SCORE.INTRA.POLAR.0>
-1.47808

>  <SCORE.INTRA.REPUL>
0

>  <SCORE.INTRA.REPUL.0>
0

>  <SCORE.INTRA.VDW>
1.53206

>  <SCORE.INTRA.VDW.0>
-2.78316

>  <SCORE.INTRA.norm>
0.332675

>  <SCORE.RESTR>
1.57251

>  <SCORE.RESTR.CAVITY>
1.57251

>  <SCORE.RESTR.norm>
0.0314503

>  <SCORE.SYSTEM>
0

>  <SCORE.SYSTEM.CONST>
0

>  <SCORE.SYSTEM.DIHEDRAL>
0

>  <SCORE.SYSTEM.norm>
0

>  <SCORE.heavy>
50

>  <SCORE.norm>
0.435025

$$$$
