FB1.pdb
  RxDock  10072009543D
librxdock.so/0.1.0
 59 58  0  0  0  0  0  0  0  0999 V2000
   -3.1353   -2.2001   -2.9704 C   0  0  0  0  0  0
   -1.9981   -3.2088   -3.1140 C   0  0  0  0  0  0
   -1.1533   -2.9394   -4.3702 C   0  0  0  0  0  0
   -1.2869   -4.0401   -5.4520 C   0  0  0  0  0  0
   -2.7568   -4.4988   -5.7510 C   0  0  0  0  0  0
   -3.6105   -3.2406   -6.0316 C   0  0  0  0  0  0
   -2.8655   -5.5365   -6.9465 C   0  0  0  0  0  0
   -2.3310   -5.0537   -8.3774 C   0  0  0  0  0  0
   -0.8044   -5.0220   -8.8209 C   0  0  0  0  0  0
   -0.1067   -3.5272   -8.8201 C   0  0  0  0  0  0
    0.2988   -3.1803  -10.2516 C   0  0  0  0  0  0
   -0.9837   -2.3422   -8.2105 C   0  0  0  0  0  0
   -0.4603   -0.8205   -8.0404 C   0  0  0  0  0  0
    0.9502   -0.4784   -7.4492 C   0  0  0  0  0  0
    1.1265    0.8973   -6.6581 C   0  0  0  0  0  0
    0.5454    2.2830   -7.1448 C   0  0  0  0  0  0
    1.3747    3.1597   -8.1200 C   0  0  0  0  0  0
    0.7698    4.5691   -8.4899 C   0  0  0  0  0  0
    1.7329    5.5739   -9.1343 C   0  0  0  0  0  0
    1.3390    7.0783   -9.1323 C   0  0  0  0  0  0
    2.0388    8.0808  -10.0970 C   0  0  0  0  0  0
    3.5494    7.9492  -10.2318 C   0  0  0  0  0  0
    1.3888    8.0765  -11.4213 N   0  0  0  0  0  0
   -0.0575    7.0931   -9.5237 O   0  0  0  0  0  0
   -0.3302    4.3574   -9.3815 O   0  0  0  0  0  0
   -0.4490   -0.2824   -9.3734 O   0  0  0  0  0  0
   -2.9738   -5.9091   -9.3611 O   0  0  0  0  0  0
   -4.0797   -5.4173   -9.9776 C   0  0  0  0  0  0
   -4.1022   -4.7769  -11.0115 O   0  0  0  0  0  0
   -5.2932   -5.8834   -9.2215 C   0  0  0  0  0  0
   -5.1965   -7.3589   -8.8019 C   0  0  0  0  0  0
   -6.3389   -7.7817   -7.8694 C   0  0  0  0  0  0
   -6.6197   -9.2617   -7.9877 C   0  0  0  0  0  0
   -7.7430   -9.7288   -8.1413 O   0  0  0  0  0  0
   -5.5178  -10.0225   -7.9104 O   0  0  0  0  0  0
   -5.2520   -8.1719  -10.1026 C   0  0  0  0  0  0
   -4.3425   -8.8977  -10.4748 O   0  0  0  0  0  0
   -6.3640   -7.9825  -10.8261 O   0  0  0  0  0  0
   -2.3073   -6.8560   -6.5627 O   0  0  0  0  0  0
   -3.1730   -7.8219   -6.0772 C   0  0  0  0  0  0
   -3.6886   -8.6998   -6.7567 O   0  0  0  0  0  0
   -3.4241   -7.6766   -4.5705 C   0  0  0  0  0  0
   -4.0506   -8.9194   -3.8652 C   0  0  0  0  0  0
   -4.5805   -8.7460   -2.4301 C   0  0  0  0  0  0
   -3.5883   -8.0903   -1.5137 C   0  0  0  0  0  0
   -2.6892   -7.3355   -1.8581 O   0  0  0  0  0  0
   -3.7945   -8.4037   -0.2254 O   0  0  0  0  0  0
   -5.1487   -9.6239   -4.6715 C   0  0  0  0  0  0
   -6.0941   -9.0336   -5.1557 O   0  0  0  0  0  0
   -4.9444  -10.9375   -4.9041 O   0  0  0  0  0  0
    0.4717    8.5142  -11.3448 H   0  0  0  0  0  0
    1.1970    7.1081  -11.6879 H   0  0  0  0  0  0
   -0.3327    8.0285   -9.4205 H   0  0  0  0  0  0
    0.0115    3.9354  -10.1912 H   0  0  0  0  0  0
   -1.3132   -0.4650   -9.7787 H   0  0  0  0  0  0
   -4.6825   -9.5339   -7.7802 H   0  0  0  0  0  0
   -7.0276   -7.3796  -10.4079 H   0  0  0  0  0  0
   -4.2386   -9.2777   -0.2161 H   0  0  0  0  0  0
   -5.6384  -11.3817   -5.4401 H   0  0  0  0  0  0
  1  2  1  0  0  0
  2  3  1  0  0  0
  3  4  1  0  0  0
  4  5  1  0  0  0
  5  6  1  0  0  0
  5  7  1  0  0  0
  7  8  1  0  0  0
  7 39  1  0  0  0
  8  9  1  0  0  0
  8 27  1  0  0  0
  9 10  1  0  0  0
 10 11  1  0  0  0
 10 12  1  0  0  0
 12 13  1  0  0  0
 13 14  1  0  0  0
 13 26  1  0  0  0
 14 15  1  0  0  0
 15 16  1  0  0  0
 16 17  1  0  0  0
 17 18  1  0  0  0
 18 19  1  0  0  0
 18 25  1  0  0  0
 19 20  1  0  0  0
 20 21  1  0  0  0
 20 24  1  0  0  0
 21 22  1  0  0  0
 21 23  1  0  0  0
 23 51  1  0  0  0
 23 52  1  0  0  0
 24 53  1  0  0  0
 25 54  1  0  0  0
 26 55  1  0  0  0
 27 28  1  0  0  0
 28 29  2  0  0  0
 28 30  1  0  0  0
 30 31  1  0  0  0
 31 32  1  0  0  0
 31 36  1  0  0  0
 32 33  1  0  0  0
 33 34  2  0  0  0
 33 35  1  0  0  0
 35 56  1  0  0  0
 36 37  2  0  0  0
 36 38  1  0  0  0
 38 57  1  0  0  0
 39 40  1  0  0  0
 40 41  2  0  0  0
 40 42  1  0  0  0
 42 43  1  0  0  0
 43 44  1  0  0  0
 43 48  1  0  0  0
 44 45  1  0  0  0
 45 46  2  0  0  0
 45 47  1  0  0  0
 47 58  1  0  0  0
 48 49  2  0  0  0
 48 50  1  0  0  0
 50 59  1  0  0  0
M  END
>  <AUTHOR>
    GENERATED BY OPEN BABEL 2.4.1

>  <CHROM.1>
-112.29833189,45.91807696,51.46686436,-59.79208630,79.78062086,94.40462522
-103.25115460,97.79105214,-116.71378188,176.52504255,-45.57891494,-150.02318068
50.24136566,-44.09490271,-86.58824368,-176.29290141,164.24723373,-162.05949293
-62.11945599,-162.49443054,-43.30465809,173.58287726,70.74405901,90.39643816
-42.63829867,172.12163370,153.19649066,118.46377295,-131.17084841,0.56607992
-3.00073722,95.16381194,-163.73956972,-168.16770741,-50.13650854,-50.98969967
25.70355112,26.42614415,-178.54183712,-2.39187384,-3.60642633,-7.29529042
-0.56009562,1.08942343,1.95690128

>  <COMPND>
    UNNAMED

>  <MASTER>
        0    0    0    0    0    0    0    0  109    0  109    0

>  <Name>
FB1.pdb

>  <RI>
0

>  <Rbt.Current_Directory>
/cluster/tossine/FB1_39T3/p3/1_clust02

>  <Rbt.Executable>
rbdock/0.1.0

>  <Rbt.Library>
librxdock.so/0.1.0

>  <Rbt.Parameter_File>
/cluster/rxdock/data/scripts/dock.prm

>  <Rbt.Receptor>
rx_4.prm

>  <SCORE>
50.7318

>  <SCORE.INTER>
16.8604

>  <SCORE.INTER.CONST>
1

>  <SCORE.INTER.POLAR>
-0.605588

>  <SCORE.INTER.REPUL>
0.784713

>  <SCORE.INTER.ROT>
32

>  <SCORE.INTER.VDW>
-22.4042

>  <SCORE.INTER.norm>
0.337207

>  <SCORE.INTRA>
31.4227

>  <SCORE.INTRA.DIHEDRAL>
58.7863

>  <SCORE.INTRA.DIHEDRAL.0>
47.3121

>  <SCORE.INTRA.POLAR>
0.514579

>  <SCORE.INTRA.POLAR.0>
-1.47808

>  <SCORE.INTRA.REPUL>
0

>  <SCORE.INTRA.REPUL.0>
0

>  <SCORE.INTRA.VDW>
0.280009

>  <SCORE.INTRA.VDW.0>
-2.78316

>  <SCORE.INTRA.norm>
0.628454

>  <SCORE.RESTR>
2.44872

>  <SCORE.RESTR.CAVITY>
2.44872

>  <SCORE.RESTR.norm>
0.0489744

>  <SCORE.SYSTEM>
0

>  <SCORE.SYSTEM.CONST>
0

>  <SCORE.SYSTEM.DIHEDRAL>
0

>  <SCORE.SYSTEM.norm>
0

>  <SCORE.heavy>
50

>  <SCORE.norm>
1.01464

$$$$
