FB1.pdb
  RxDock  10072009523D
librxdock.so/0.1.0
 59 58  0  0  0  0  0  0  0  0999 V2000
   -3.1399    2.4983  -12.4447 C   0  0  0  0  0  0
   -4.2071    1.4400  -12.7140 C   0  0  0  0  0  0
   -4.7512    0.8353  -11.4092 C   0  0  0  0  0  0
   -3.7300   -0.0686  -10.6745 C   0  0  0  0  0  0
   -4.2769   -1.4768  -10.2519 C   0  0  0  0  0  0
   -4.4663   -2.3273  -11.5291 C   0  0  0  0  0  0
   -3.3521   -2.2265   -9.2028 C   0  0  0  0  0  0
   -1.9722   -2.8275   -9.7511 C   0  0  0  0  0  0
   -0.5569   -2.6602   -9.0459 C   0  0  0  0  0  0
    0.6781   -2.2269  -10.0501 C   0  0  0  0  0  0
    0.7793   -3.2621  -11.1692 C   0  0  0  0  0  0
    0.5913   -0.7642  -10.6807 C   0  0  0  0  0  0
    1.2497    0.5535  -10.0108 C   0  0  0  0  0  0
    1.1817    0.8363   -8.4708 C   0  0  0  0  0  0
    1.0291    2.3494   -7.9846 C   0  0  0  0  0  0
    2.0044    3.5195   -8.4019 C   0  0  0  0  0  0
    1.6252    4.4446   -9.5884 C   0  0  0  0  0  0
    0.4776    5.4949   -9.3253 C   0  0  0  0  0  0
    0.4995    6.7574  -10.1959 C   0  0  0  0  0  0
    1.4447    7.9213   -9.7833 C   0  0  0  0  0  0
    2.9615    7.6619   -9.5439 C   0  0  0  0  0  0
    3.8593    8.8903   -9.4941 C   0  0  0  0  0  0
    3.1681    6.8094   -8.3578 N   0  0  0  0  0  0
    1.3936    8.8489  -10.8972 O   0  0  0  0  0  0
   -0.7781    4.8337   -9.5146 O   0  0  0  0  0  0
    2.6519    0.4607  -10.3136 O   0  0  0  0  0  0
   -2.1621   -4.2657   -9.8400 O   0  0  0  0  0  0
   -2.5281   -4.9110   -8.7020 C   0  0  0  0  0  0
   -1.8120   -5.1496   -7.7483 O   0  0  0  0  0  0
   -4.0029   -5.1967   -8.7701 C   0  0  0  0  0  0
   -4.3979   -5.9616  -10.0435 C   0  0  0  0  0  0
   -4.8734   -7.3900   -9.7486 C   0  0  0  0  0  0
   -5.9254   -7.4013   -8.6639 C   0  0  0  0  0  0
   -7.0670   -6.9824   -8.8218 O   0  0  0  0  0  0
   -5.4918   -7.9174   -7.5044 O   0  0  0  0  0  0
   -5.5326   -5.1525  -10.6867 C   0  0  0  0  0  0
   -6.4047   -4.5947  -10.0381 O   0  0  0  0  0  0
   -5.5180   -5.1481  -12.0268 O   0  0  0  0  0  0
   -3.1539   -1.4073   -7.9823 O   0  0  0  0  0  0
   -2.8705   -2.0561   -6.7920 C   0  0  0  0  0  0
   -2.8747   -3.2710   -6.6430 O   0  0  0  0  0  0
   -2.5437   -1.0768   -5.6568 C   0  0  0  0  0  0
   -2.7305   -1.6303   -4.2100 C   0  0  0  0  0  0
   -3.9775   -2.4847   -3.9178 C   0  0  0  0  0  0
   -4.5858   -2.1949   -2.5760 C   0  0  0  0  0  0
   -4.0356   -2.3505   -1.4945 O   0  0  0  0  0  0
   -5.8339   -1.7118   -2.6719 O   0  0  0  0  0  0
   -1.5196   -2.3926   -3.6576 C   0  0  0  0  0  0
   -0.9035   -3.2137   -4.3080 O   0  0  0  0  0  0
   -1.1092   -2.0156   -2.4285 O   0  0  0  0  0  0
    2.6796    7.2189   -7.5628 H   0  0  0  0  0  0
    4.1578    6.8391   -8.1026 H   0  0  0  0  0  0
    0.4764    9.1954  -10.8878 H   0  0  0  0  0  0
   -0.6329    4.0661  -10.0978 H   0  0  0  0  0  0
    2.7639   -0.1956  -11.0216 H   0  0  0  0  0  0
   -6.0879   -7.7880   -6.7419 H   0  0  0  0  0  0
   -6.3049   -4.7174  -12.4440 H   0  0  0  0  0  0
   -6.0777   -1.3836   -1.7808 H   0  0  0  0  0  0
   -1.8024   -1.6129   -1.8597 H   0  0  0  0  0  0
  1  2  1  0  0  0
  2  3  1  0  0  0
  3  4  1  0  0  0
  4  5  1  0  0  0
  5  6  1  0  0  0
  5  7  1  0  0  0
  7  8  1  0  0  0
  7 39  1  0  0  0
  8  9  1  0  0  0
  8 27  1  0  0  0
  9 10  1  0  0  0
 10 11  1  0  0  0
 10 12  1  0  0  0
 12 13  1  0  0  0
 13 14  1  0  0  0
 13 26  1  0  0  0
 14 15  1  0  0  0
 15 16  1  0  0  0
 16 17  1  0  0  0
 17 18  1  0  0  0
 18 19  1  0  0  0
 18 25  1  0  0  0
 19 20  1  0  0  0
 20 21  1  0  0  0
 20 24  1  0  0  0
 21 22  1  0  0  0
 21 23  1  0  0  0
 23 51  1  0  0  0
 23 52  1  0  0  0
 24 53  1  0  0  0
 25 54  1  0  0  0
 26 55  1  0  0  0
 27 28  1  0  0  0
 28 29  2  0  0  0
 28 30  1  0  0  0
 30 31  1  0  0  0
 31 32  1  0  0  0
 31 36  1  0  0  0
 32 33  1  0  0  0
 33 34  2  0  0  0
 33 35  1  0  0  0
 35 56  1  0  0  0
 36 37  2  0  0  0
 36 38  1  0  0  0
 38 57  1  0  0  0
 39 40  1  0  0  0
 40 41  2  0  0  0
 40 42  1  0  0  0
 42 43  1  0  0  0
 43 44  1  0  0  0
 43 48  1  0  0  0
 44 45  1  0  0  0
 45 46  2  0  0  0
 45 47  1  0  0  0
 47 58  1  0  0  0
 48 49  2  0  0  0
 48 50  1  0  0  0
 50 59  1  0  0  0
M  END
>  <AUTHOR>
    GENERATED BY OPEN BABEL 2.4.1

>  <CHROM.1>
-70.27028632,-130.21697680,70.73859603,-73.18071777,133.46653611,153.97279940
-133.59517028,-56.87184233,-56.67415443,91.48423386,-41.76207808,-144.44466181
15.81835579,-54.79223908,96.24951116,73.54868273,154.41544477,-82.01359802
-23.55057940,53.47259024,164.97815367,67.03262964,-53.04067721,-73.88792018
54.39277455,112.39280307,50.26902815,-38.12699390,70.93533612,169.09985529
173.22715128,-6.14053167,158.19083515,-42.08290624,-140.29254486,-44.65671026
-61.75783107,-168.66730375,25.80612803,-1.95359159,-0.77727258,-8.49678931
0.25702128,-1.04397386,-1.44202396

>  <COMPND>
    UNNAMED

>  <MASTER>
        0    0    0    0    0    0    0    0  109    0  109    0

>  <Name>
FB1.pdb

>  <RI>
0

>  <Rbt.Current_Directory>
/cluster/tossine/FB1_39T3/p3/1_clust02

>  <Rbt.Executable>
rbdock/0.1.0

>  <Rbt.Library>
librxdock.so/0.1.0

>  <Rbt.Parameter_File>
/cluster/rxdock/data/scripts/dock.prm

>  <Rbt.Receptor>
rx_4.prm

>  <SCORE>
36.8698

>  <SCORE.INTER>
4.53386

>  <SCORE.INTER.CONST>
1

>  <SCORE.INTER.POLAR>
-3.84781

>  <SCORE.INTER.REPUL>
2.69512

>  <SCORE.INTER.ROT>
32

>  <SCORE.INTER.VDW>
-33.2592

>  <SCORE.INTER.norm>
0.0906773

>  <SCORE.INTRA>
32.2817

>  <SCORE.INTRA.DIHEDRAL>
54.4467

>  <SCORE.INTRA.DIHEDRAL.0>
47.3121

>  <SCORE.INTRA.POLAR>
1.45411

>  <SCORE.INTRA.POLAR.0>
-1.47808

>  <SCORE.INTRA.REPUL>
0.0781066

>  <SCORE.INTRA.REPUL.0>
0

>  <SCORE.INTRA.VDW>
-0.276131

>  <SCORE.INTRA.VDW.0>
-2.78316

>  <SCORE.INTRA.norm>
0.645634

>  <SCORE.RESTR>
0.0541658

>  <SCORE.RESTR.CAVITY>
0.0541658

>  <SCORE.RESTR.norm>
0.00108332

>  <SCORE.SYSTEM>
0

>  <SCORE.SYSTEM.CONST>
0

>  <SCORE.SYSTEM.DIHEDRAL>
0

>  <SCORE.SYSTEM.norm>
0

>  <SCORE.heavy>
50

>  <SCORE.norm>
0.737395

$$$$
