FB1.pdb
  RxDock  10072007263D
librxdock.so/0.1.0
 59 58  0  0  0  0  0  0  0  0999 V2000
   -4.6354   -2.5902  -12.0738 C   0  0  0  0  0  0
   -3.7953   -2.2056  -10.8583 C   0  0  0  0  0  0
   -3.3241   -3.4433  -10.0771 C   0  0  0  0  0  0
   -2.4272   -3.1016   -8.8612 C   0  0  0  0  0  0
   -1.8602   -4.3429   -8.0877 C   0  0  0  0  0  0
   -0.4306   -4.6253   -8.6043 C   0  0  0  0  0  0
   -1.8690   -4.1647   -6.5110 C   0  0  0  0  0  0
   -2.6864   -2.9173   -5.9262 C   0  0  0  0  0  0
   -3.8006   -3.0026   -4.7950 C   0  0  0  0  0  0
   -3.2655   -2.7081   -3.2626 C   0  0  0  0  0  0
   -4.3141   -1.8676   -2.5358 C   0  0  0  0  0  0
   -2.9058   -3.9906   -2.3848 C   0  0  0  0  0  0
   -3.9158   -4.6755   -1.3221 C   0  0  0  0  0  0
   -3.9217   -6.2175   -1.0423 C   0  0  0  0  0  0
   -4.5094   -6.7323    0.3501 C   0  0  0  0  0  0
   -3.7665   -7.7442    1.3086 C   0  0  0  0  0  0
   -3.3048   -7.2695    2.7118 C   0  0  0  0  0  0
   -4.1295   -7.8063    3.9449 C   0  0  0  0  0  0
   -5.2253   -6.8789    4.4850 C   0  0  0  0  0  0
   -6.6371   -6.9501    3.8369 C   0  0  0  0  0  0
   -7.7514   -5.9457    4.2551 C   0  0  0  0  0  0
   -7.3734   -4.4711    4.2439 C   0  0  0  0  0  0
   -8.9864   -6.1793    3.4827 N   0  0  0  0  0  0
   -6.4083   -6.6918    2.4281 O   0  0  0  0  0  0
   -4.7313   -9.0490    3.5665 O   0  0  0  0  0  0
   -3.5934   -4.0664   -0.0605 O   0  0  0  0  0  0
   -1.6966   -1.9992   -5.3878 O   0  0  0  0  0  0
   -1.7161   -0.7253   -5.8590 C   0  0  0  0  0  0
   -2.5333    0.1318   -5.5819 O   0  0  0  0  0  0
   -0.4937   -0.5135   -6.7089 C   0  0  0  0  0  0
    0.7847   -0.3438   -5.8725 C   0  0  0  0  0  0
    1.9162   -1.2721   -6.3319 C   0  0  0  0  0  0
    1.9345   -1.4058   -7.8369 C   0  0  0  0  0  0
    1.3848   -0.6141   -8.5949 O   0  0  0  0  0  0
    2.6144   -2.4778   -8.2699 O   0  0  0  0  0  0
    1.2072    1.1223   -6.0404 C   0  0  0  0  0  0
    1.1438    1.9423   -5.1371 O   0  0  0  0  0  0
    1.6071    1.4442   -7.2783 O   0  0  0  0  0  0
   -2.2305   -5.4323   -5.8309 O   0  0  0  0  0  0
   -3.0131   -6.3474   -6.5151 C   0  0  0  0  0  0
   -3.6641   -6.0931   -7.5201 O   0  0  0  0  0  0
   -2.9793   -7.7403   -5.8725 C   0  0  0  0  0  0
   -4.3469   -8.2773   -5.3473 C   0  0  0  0  0  0
   -4.9504   -9.5152   -6.0357 C   0  0  0  0  0  0
   -4.2123  -10.7829   -5.7150 C   0  0  0  0  0  0
   -3.2020  -11.1821   -6.2776 O   0  0  0  0  0  0
   -4.7718  -11.4598   -4.7006 O   0  0  0  0  0  0
   -4.3941   -8.5317   -3.8356 C   0  0  0  0  0  0
   -3.6173   -8.0177   -3.0550 O   0  0  0  0  0  0
   -5.4280   -9.2856   -3.4069 O   0  0  0  0  0  0
   -8.8555   -5.8369    2.5319 H   0  0  0  0  0  0
   -9.7306   -5.5966    3.8725 H   0  0  0  0  0  0
   -7.2690   -6.8831    1.9993 H   0  0  0  0  0  0
   -4.0359   -9.6236    3.1966 H   0  0  0  0  0  0
   -2.8708   -4.5756    0.3433 H   0  0  0  0  0  0
    2.4379   -2.7376   -9.1945 H   0  0  0  0  0  0
    2.1305    2.2818   -7.3353 H   0  0  0  0  0  0
   -5.3317  -10.8210   -4.2110 H   0  0  0  0  0  0
   -5.4540   -9.4504   -2.4382 H   0  0  0  0  0  0
  1  2  1  0  0  0
  2  3  1  0  0  0
  3  4  1  0  0  0
  4  5  1  0  0  0
  5  6  1  0  0  0
  5  7  1  0  0  0
  7  8  1  0  0  0
  7 39  1  0  0  0
  8  9  1  0  0  0
  8 27  1  0  0  0
  9 10  1  0  0  0
 10 11  1  0  0  0
 10 12  1  0  0  0
 12 13  1  0  0  0
 13 14  1  0  0  0
 13 26  1  0  0  0
 14 15  1  0  0  0
 15 16  1  0  0  0
 16 17  1  0  0  0
 17 18  1  0  0  0
 18 19  1  0  0  0
 18 25  1  0  0  0
 19 20  1  0  0  0
 20 21  1  0  0  0
 20 24  1  0  0  0
 21 22  1  0  0  0
 21 23  1  0  0  0
 23 51  1  0  0  0
 23 52  1  0  0  0
 24 53  1  0  0  0
 25 54  1  0  0  0
 26 55  1  0  0  0
 27 28  1  0  0  0
 28 29  2  0  0  0
 28 30  1  0  0  0
 30 31  1  0  0  0
 31 32  1  0  0  0
 31 36  1  0  0  0
 32 33  1  0  0  0
 33 34  2  0  0  0
 33 35  1  0  0  0
 35 56  1  0  0  0
 36 37  2  0  0  0
 36 38  1  0  0  0
 38 57  1  0  0  0
 39 40  1  0  0  0
 40 41  2  0  0  0
 40 42  1  0  0  0
 42 43  1  0  0  0
 43 44  1  0  0  0
 43 48  1  0  0  0
 44 45  1  0  0  0
 45 46  2  0  0  0
 45 47  1  0  0  0
 47 58  1  0  0  0
 48 49  2  0  0  0
 48 50  1  0  0  0
 50 59  1  0  0  0
M  END
>  <AUTHOR>
    GENERATED BY OPEN BABEL 2.4.1

>  <CHROM.1>
178.05075132,-176.67681520,96.69502839,11.35292533,127.52277072,-26.53505615
95.31528430,124.45745143,139.72472142,-96.55380078,147.24689092,157.11221403
-86.94121931,-130.23144506,114.93355692,106.88399069,-96.64261691,86.68768366
51.28696844,-174.45986977,50.28225804,170.88920160,-74.05628052,74.11266505
-75.53835014,128.96785327,37.84651354,110.58890736,18.72695475,163.27103128
-162.25678396,-16.07892643,118.00890395,114.52203543,71.93781874,20.42300640
-83.58323820,-19.59655421,179.74956824,-3.01446991,-4.75616431,-3.87168275
0.46650854,-1.09204995,-2.09419331

>  <COMPND>
    UNNAMED

>  <MASTER>
        0    0    0    0    0    0    0    0  109    0  109    0

>  <Name>
FB1.pdb

>  <RI>
0

>  <Rbt.Current_Directory>
/cluster/tossine/FB1_39T3/p3/1_clust02

>  <Rbt.Executable>
rbdock/0.1.0

>  <Rbt.Library>
librxdock.so/0.1.0

>  <Rbt.Parameter_File>
/cluster/rxdock/data/scripts/dock.prm

>  <Rbt.Receptor>
rx_0.prm

>  <SCORE>
114.682

>  <SCORE.INTER>
68.6301

>  <SCORE.INTER.CONST>
1

>  <SCORE.INTER.POLAR>
-0.477656

>  <SCORE.INTER.REPUL>
0.524697

>  <SCORE.INTER.ROT>
32

>  <SCORE.INTER.VDW>
30.2306

>  <SCORE.INTER.norm>
1.3726

>  <SCORE.INTRA>
45.2399

>  <SCORE.INTRA.DIHEDRAL>
76.4926

>  <SCORE.INTRA.DIHEDRAL.0>
47.3121

>  <SCORE.INTRA.POLAR>
0.515488

>  <SCORE.INTRA.POLAR.0>
-1.47808

>  <SCORE.INTRA.REPUL>
0

>  <SCORE.INTRA.REPUL.0>
0

>  <SCORE.INTRA.VDW>
5.24091

>  <SCORE.INTRA.VDW.0>
-2.78316

>  <SCORE.INTRA.norm>
0.904797

>  <SCORE.RESTR>
0.811804

>  <SCORE.RESTR.CAVITY>
0.811804

>  <SCORE.RESTR.norm>
0.0162361

>  <SCORE.SYSTEM>
0

>  <SCORE.SYSTEM.CONST>
0

>  <SCORE.SYSTEM.DIHEDRAL>
0

>  <SCORE.SYSTEM.norm>
0

>  <SCORE.heavy>
50

>  <SCORE.norm>
2.29364

$$$$
