FB1.pdb
  RxDock  10072008083D
librxdock.so/0.1.0
 59 58  0  0  0  0  0  0  0  0999 V2000
    3.6016   -0.4470   -9.9549 C   0  0  0  0  0  0
    3.6890   -1.5021   -8.8547 C   0  0  0  0  0  0
    2.3236   -1.7478   -8.1917 C   0  0  0  0  0  0
    1.2449   -2.2686   -9.1739 C   0  0  0  0  0  0
    0.6757   -1.1922  -10.1628 C   0  0  0  0  0  0
   -0.0244   -1.9267  -11.3294 C   0  0  0  0  0  0
   -0.3080   -0.1558   -9.4729 C   0  0  0  0  0  0
    0.2616    1.3172   -9.2044 C   0  0  0  0  0  0
    0.5881    1.9249   -7.7718 C   0  0  0  0  0  0
    1.4188    0.9218   -6.7593 C   0  0  0  0  0  0
    1.9703    1.7506   -5.6004 C   0  0  0  0  0  0
    0.6082   -0.3268   -6.1857 C   0  0  0  0  0  0
   -0.8990   -0.2403   -5.6031 C   0  0  0  0  0  0
   -1.9420   -1.3938   -5.7968 C   0  0  0  0  0  0
   -2.5690   -2.0744   -4.4957 C   0  0  0  0  0  0
   -2.5378   -3.6259   -4.2017 C   0  0  0  0  0  0
   -2.5647   -4.6290   -5.3851 C   0  0  0  0  0  0
   -2.8215   -4.0223   -6.8186 C   0  0  0  0  0  0
   -2.5621   -4.9555   -8.0078 C   0  0  0  0  0  0
   -3.6885   -5.9401   -8.4319 C   0  0  0  0  0  0
   -3.9334   -7.2541   -7.6326 C   0  0  0  0  0  0
   -3.4384   -7.2737   -6.1931 C   0  0  0  0  0  0
   -5.3499   -7.6593   -7.7086 N   0  0  0  0  0  0
   -4.9151   -5.1793   -8.2884 O   0  0  0  0  0  0
   -4.1827   -3.5820   -6.8746 O   0  0  0  0  0  0
   -0.7384   -0.1148   -4.1800 O   0  0  0  0  0  0
    1.5194    1.4045   -9.9274 O   0  0  0  0  0  0
    2.0197    2.6482  -10.1469 C   0  0  0  0  0  0
    3.1904    2.9732  -10.0896 O   0  0  0  0  0  0
    0.8921    3.5460  -10.5757 C   0  0  0  0  0  0
    1.0517    4.9836  -10.0559 C   0  0  0  0  0  0
   -0.2313    5.8107  -10.2087 C   0  0  0  0  0  0
   -0.1210    7.1280   -9.4767 C   0  0  0  0  0  0
   -0.7998    7.4188   -8.4977 O   0  0  0  0  0  0
    0.7961    7.9549  -10.0000 O   0  0  0  0  0  0
    1.4213    4.8568   -8.5715 C   0  0  0  0  0  0
    2.5711    4.9162   -8.1630 O   0  0  0  0  0  0
    0.3801    4.6251   -7.7602 O   0  0  0  0  0  0
   -1.6218   -0.1252  -10.1607 O   0  0  0  0  0  0
   -2.5931   -1.0305   -9.7669 C   0  0  0  0  0  0
   -2.3971   -1.9823   -9.0227 O   0  0  0  0  0  0
   -3.9674   -0.7116  -10.3703 C   0  0  0  0  0  0
   -4.8708   -1.9438  -10.6865 C   0  0  0  0  0  0
   -6.2467   -1.6864  -11.3275 C   0  0  0  0  0  0
   -6.1749   -1.5007  -12.8158 C   0  0  0  0  0  0
   -5.9516   -0.4456  -13.3932 O   0  0  0  0  0  0
   -6.3673   -2.6471  -13.4859 O   0  0  0  0  0  0
   -4.1860   -3.0421  -11.5094 C   0  0  0  0  0  0
   -3.3680   -2.8047  -12.3762 O   0  0  0  0  0  0
   -4.4703   -4.3076  -11.1368 O   0  0  0  0  0  0
   -5.9188   -6.9817   -7.2030 H   0  0  0  0  0  0
   -5.4668   -8.5362   -7.1959 H   0  0  0  0  0  0
   -4.9105   -4.5586   -9.0473 H   0  0  0  0  0  0
   -4.7582   -4.3684   -6.8456 H   0  0  0  0  0  0
   -0.2597    0.7124   -4.0032 H   0  0  0  0  0  0
    0.9074    8.8041   -9.5309 H   0  0  0  0  0  0
    0.6260    4.2842   -6.8646 H   0  0  0  0  0  0
   -6.0105   -2.5086  -14.3886 H   0  0  0  0  0  0
   -4.2578   -4.9989  -11.8025 H   0  0  0  0  0  0
  1  2  1  0  0  0
  2  3  1  0  0  0
  3  4  1  0  0  0
  4  5  1  0  0  0
  5  6  1  0  0  0
  5  7  1  0  0  0
  7  8  1  0  0  0
  7 39  1  0  0  0
  8  9  1  0  0  0
  8 27  1  0  0  0
  9 10  1  0  0  0
 10 11  1  0  0  0
 10 12  1  0  0  0
 12 13  1  0  0  0
 13 14  1  0  0  0
 13 26  1  0  0  0
 14 15  1  0  0  0
 15 16  1  0  0  0
 16 17  1  0  0  0
 17 18  1  0  0  0
 18 19  1  0  0  0
 18 25  1  0  0  0
 19 20  1  0  0  0
 20 21  1  0  0  0
 20 24  1  0  0  0
 21 22  1  0  0  0
 21 23  1  0  0  0
 23 51  1  0  0  0
 23 52  1  0  0  0
 24 53  1  0  0  0
 25 54  1  0  0  0
 26 55  1  0  0  0
 27 28  1  0  0  0
 28 29  2  0  0  0
 28 30  1  0  0  0
 30 31  1  0  0  0
 31 32  1  0  0  0
 31 36  1  0  0  0
 32 33  1  0  0  0
 33 34  2  0  0  0
 33 35  1  0  0  0
 35 56  1  0  0  0
 36 37  2  0  0  0
 36 38  1  0  0  0
 38 57  1  0  0  0
 39 40  1  0  0  0
 40 41  2  0  0  0
 40 42  1  0  0  0
 42 43  1  0  0  0
 43 44  1  0  0  0
 43 48  1  0  0  0
 44 45  1  0  0  0
 45 46  2  0  0  0
 45 47  1  0  0  0
 47 58  1  0  0  0
 48 49  2  0  0  0
 48 50  1  0  0  0
 50 59  1  0  0  0
M  END
>  <AUTHOR>
    GENERATED BY OPEN BABEL 2.4.1

>  <CHROM.1>
61.07176485,-74.12933017,162.50150431,105.28128814,-110.33473310,87.18098448
45.28052094,163.16710487,165.19009313,-44.76189894,144.52115601,120.94377521
62.29064879,-125.24525106,-31.02689433,-8.11965457,167.77646537,83.61029843
-68.07927487,-78.43025149,22.72601176,74.07456769,-67.67232224,140.82868868
145.10750619,-166.76911462,170.08045110,97.58122140,-113.65366920,-178.29298568
162.99092841,-10.79704371,147.10389757,-178.43527288,82.35793359,-35.00841912
-86.13931394,-161.15378645,162.80601602,-1.34077662,-0.51707577,-8.83787457
-0.77446301,0.76424342,2.49509442

>  <COMPND>
    UNNAMED

>  <MASTER>
        0    0    0    0    0    0    0    0  109    0  109    0

>  <Name>
FB1.pdb

>  <RI>
0

>  <Rbt.Current_Directory>
/cluster/tossine/FB1_39T3/p3/1_clust02

>  <Rbt.Executable>
rbdock/0.1.0

>  <Rbt.Library>
librxdock.so/0.1.0

>  <Rbt.Parameter_File>
/cluster/rxdock/data/scripts/dock.prm

>  <Rbt.Receptor>
rx_1.prm

>  <SCORE>
56.5926

>  <SCORE.INTER>
26.1901

>  <SCORE.INTER.CONST>
1

>  <SCORE.INTER.POLAR>
-1.58097

>  <SCORE.INTER.REPUL>
0.584307

>  <SCORE.INTER.ROT>
32

>  <SCORE.INTER.VDW>
-8.75614

>  <SCORE.INTER.norm>
0.523802

>  <SCORE.INTRA>
28.2651

>  <SCORE.INTRA.DIHEDRAL>
37.5736

>  <SCORE.INTRA.DIHEDRAL.0>
47.3121

>  <SCORE.INTRA.POLAR>
0.271162

>  <SCORE.INTRA.POLAR.0>
-1.47808

>  <SCORE.INTRA.REPUL>
0

>  <SCORE.INTRA.REPUL.0>
0

>  <SCORE.INTRA.VDW>
8.55631

>  <SCORE.INTRA.VDW.0>
-2.78316

>  <SCORE.INTRA.norm>
0.565301

>  <SCORE.RESTR>
2.1374

>  <SCORE.RESTR.CAVITY>
2.1374

>  <SCORE.RESTR.norm>
0.042748

>  <SCORE.SYSTEM>
0

>  <SCORE.SYSTEM.CONST>
0

>  <SCORE.SYSTEM.DIHEDRAL>
0

>  <SCORE.SYSTEM.norm>
0

>  <SCORE.heavy>
50

>  <SCORE.norm>
1.13185

$$$$
