FB1.pdb
  RxDock  10072009203D
librxdock.so/0.1.0
 59 58  0  0  0  0  0  0  0  0999 V2000
    0.4642    3.9316   -8.2497 C   0  0  0  0  0  0
    0.7001    2.8941   -7.1546 C   0  0  0  0  0  0
    0.5946    1.4593   -7.6973 C   0  0  0  0  0  0
    1.3509    0.4165   -6.8369 C   0  0  0  0  0  0
    1.6214   -0.9558   -7.5469 C   0  0  0  0  0  0
    2.6939   -1.7191   -6.7358 C   0  0  0  0  0  0
    0.3169   -1.8394   -7.7351 C   0  0  0  0  0  0
   -0.0838   -2.2314   -9.2358 C   0  0  0  0  0  0
   -1.5544   -2.5820   -9.7283 C   0  0  0  0  0  0
   -2.0355   -4.1343   -9.4447 C   0  0  0  0  0  0
   -0.8836   -4.8852   -8.7789 C   0  0  0  0  0  0
   -3.3622   -4.3117   -8.5769 C   0  0  0  0  0  0
   -4.3152   -5.6184   -8.6325 C   0  0  0  0  0  0
   -5.8768   -5.5239   -8.5397 C   0  0  0  0  0  0
   -6.7249   -6.8723   -8.6486 C   0  0  0  0  0  0
   -6.4424   -8.1711   -7.7954 C   0  0  0  0  0  0
   -5.0534   -8.8569   -7.8839 C   0  0  0  0  0  0
   -4.5557   -9.6119   -6.5911 C   0  0  0  0  0  0
   -4.8666   -8.9382   -5.2488 C   0  0  0  0  0  0
   -4.4080   -9.6484   -3.9436 C   0  0  0  0  0  0
   -4.6219   -8.9717   -2.5573 C   0  0  0  0  0  0
   -4.4721   -9.8676   -1.3357 C   0  0  0  0  0  0
   -3.7881   -7.7614   -2.4291 N   0  0  0  0  0  0
   -5.1940  -10.8663   -3.8921 O   0  0  0  0  0  0
   -5.1403  -10.9188   -6.5903 O   0  0  0  0  0  0
   -4.0508   -6.2143   -9.9137 O   0  0  0  0  0  0
    0.3171   -1.1103  -10.0694 O   0  0  0  0  0  0
    1.6329   -1.0238  -10.3958 C   0  0  0  0  0  0
    2.4872   -1.8589  -10.1674 O   0  0  0  0  0  0
    1.8459    0.2396  -11.1831 C   0  0  0  0  0  0
    1.5500    1.5043  -10.3612 C   0  0  0  0  0  0
    2.5561    2.6305  -10.6311 C   0  0  0  0  0  0
    3.9593    2.0867  -10.7678 C   0  0  0  0  0  0
    4.7955    2.5524  -11.5344 O   0  0  0  0  0  0
    4.2076    1.0409   -9.9657 O   0  0  0  0  0  0
    0.1393    1.9515  -10.7683 C   0  0  0  0  0  0
   -0.1554    3.1180  -10.9804 O   0  0  0  0  0  0
   -0.7604    0.9600  -10.8249 O   0  0  0  0  0  0
    0.3373   -3.0218   -6.8400 O   0  0  0  0  0  0
   -0.7697   -3.2652   -6.0442 C   0  0  0  0  0  0
   -1.1275   -4.3741   -5.6692 O   0  0  0  0  0  0
   -1.5161   -1.9772   -5.6726 C   0  0  0  0  0  0
   -3.0172   -2.1521   -5.2846 C   0  0  0  0  0  0
   -3.3753   -3.2330   -4.2484 C   0  0  0  0  0  0
   -2.8806   -2.9092   -2.8682 C   0  0  0  0  0  0
   -3.5255   -2.3499   -1.9920 O   0  0  0  0  0  0
   -1.6201   -3.3218   -2.6650 O   0  0  0  0  0  0
   -3.7186   -0.8589   -4.8510 C   0  0  0  0  0  0
   -3.7060    0.1554   -5.5201 O   0  0  0  0  0  0
   -4.4486   -0.9472   -3.7193 O   0  0  0  0  0  0
   -3.8765   -7.2035   -3.2773 H   0  0  0  0  0  0
   -2.8056   -8.0432   -2.4003 H   0  0  0  0  0  0
   -6.1141  -10.5602   -3.7471 H   0  0  0  0  0  0
   -4.4190  -11.5747   -6.5884 H   0  0  0  0  0  0
   -4.1098   -5.5167  -10.5878 H   0  0  0  0  0  0
    3.7107    1.0333   -9.1251 H   0  0  0  0  0  0
   -1.6259    1.1663  -10.3923 H   0  0  0  0  0  0
   -1.3241   -2.9172   -1.8224 H   0  0  0  0  0  0
   -4.9684   -0.1446   -3.4916 H   0  0  0  0  0  0
  1  2  1  0  0  0
  2  3  1  0  0  0
  3  4  1  0  0  0
  4  5  1  0  0  0
  5  6  1  0  0  0
  5  7  1  0  0  0
  7  8  1  0  0  0
  7 39  1  0  0  0
  8  9  1  0  0  0
  8 27  1  0  0  0
  9 10  1  0  0  0
 10 11  1  0  0  0
 10 12  1  0  0  0
 12 13  1  0  0  0
 13 14  1  0  0  0
 13 26  1  0  0  0
 14 15  1  0  0  0
 15 16  1  0  0  0
 16 17  1  0  0  0
 17 18  1  0  0  0
 18 19  1  0  0  0
 18 25  1  0  0  0
 19 20  1  0  0  0
 20 21  1  0  0  0
 20 24  1  0  0  0
 21 22  1  0  0  0
 21 23  1  0  0  0
 23 51  1  0  0  0
 23 52  1  0  0  0
 24 53  1  0  0  0
 25 54  1  0  0  0
 26 55  1  0  0  0
 27 28  1  0  0  0
 28 29  2  0  0  0
 28 30  1  0  0  0
 30 31  1  0  0  0
 31 32  1  0  0  0
 31 36  1  0  0  0
 32 33  1  0  0  0
 33 34  2  0  0  0
 33 35  1  0  0  0
 35 56  1  0  0  0
 36 37  2  0  0  0
 36 38  1  0  0  0
 38 57  1  0  0  0
 39 40  1  0  0  0
 40 41  2  0  0  0
 40 42  1  0  0  0
 42 43  1  0  0  0
 43 44  1  0  0  0
 43 48  1  0  0  0
 44 45  1  0  0  0
 45 46  2  0  0  0
 45 47  1  0  0  0
 47 58  1  0  0  0
 48 49  2  0  0  0
 48 50  1  0  0  0
 50 59  1  0  0  0
M  END
>  <AUTHOR>
    GENERATED BY OPEN BABEL 2.4.1

>  <CHROM.1>
156.89613692,-163.22409252,164.58353983,120.44283680,-154.71132525,128.89702689
-82.09565910,79.23699468,-1.31224858,155.91205314,-142.37203658,178.21147337
-49.27760435,50.52161299,-58.52122781,149.73459192,-38.94733171,179.48241260
120.65052262,176.39604673,165.04973600,-67.45496779,46.48538606,7.55302309
63.98920331,140.13294449,-39.80331617,-137.00719256,144.99317916,-30.10894063
134.18301708,150.95678711,156.91921555,49.43140810,68.62626860,52.34638793
94.28302927,168.94527431,-174.17721874,-1.54096599,-2.98297415,-7.26890912
0.00860636,1.02101549,1.10280843

>  <COMPND>
    UNNAMED

>  <MASTER>
        0    0    0    0    0    0    0    0  109    0  109    0

>  <Name>
FB1.pdb

>  <RI>
0

>  <Rbt.Current_Directory>
/cluster/tossine/FB1_39T3/p3/1_clust02

>  <Rbt.Executable>
rbdock/0.1.0

>  <Rbt.Library>
librxdock.so/0.1.0

>  <Rbt.Parameter_File>
/cluster/rxdock/data/scripts/dock.prm

>  <Rbt.Receptor>
rx_3.prm

>  <SCORE>
63.5885

>  <SCORE.INTER>
21.0996

>  <SCORE.INTER.CONST>
1

>  <SCORE.INTER.POLAR>
-3.10581

>  <SCORE.INTER.REPUL>
1.23685

>  <SCORE.INTER.ROT>
32

>  <SCORE.INTER.VDW>
-11.9249

>  <SCORE.INTER.norm>
0.421991

>  <SCORE.INTRA>
36.8758

>  <SCORE.INTRA.DIHEDRAL>
43.2664

>  <SCORE.INTRA.DIHEDRAL.0>
47.3121

>  <SCORE.INTRA.POLAR>
1.47808

>  <SCORE.INTRA.POLAR.0>
-1.47808

>  <SCORE.INTRA.REPUL>
0.358865

>  <SCORE.INTRA.REPUL.0>
0

>  <SCORE.INTRA.VDW>
8.42277

>  <SCORE.INTRA.VDW.0>
-2.78316

>  <SCORE.INTRA.norm>
0.737515

>  <SCORE.RESTR>
5.6132

>  <SCORE.RESTR.CAVITY>
5.6132

>  <SCORE.RESTR.norm>
0.112264

>  <SCORE.SYSTEM>
0

>  <SCORE.SYSTEM.CONST>
0

>  <SCORE.SYSTEM.DIHEDRAL>
0

>  <SCORE.SYSTEM.norm>
0

>  <SCORE.heavy>
50

>  <SCORE.norm>
1.27177

$$$$
