FB1.pdb
  RxDock  10072008073D
librxdock.so/0.1.0
 59 58  0  0  0  0  0  0  0  0999 V2000
  -10.1419   -4.4214    5.0860 C   0  0  0  0  0  0
  -10.4851   -4.6582    3.6172 C   0  0  0  0  0  0
  -10.9024   -3.3566    2.9130 C   0  0  0  0  0  0
  -11.3602   -3.5665    1.4480 C   0  0  0  0  0  0
  -12.9134   -3.5396    1.2300 C   0  0  0  0  0  0
  -13.4330   -2.1343    1.6116 C   0  0  0  0  0  0
  -13.3525   -3.9259   -0.2450 C   0  0  0  0  0  0
  -12.6751   -3.1050   -1.4423 C   0  0  0  0  0  0
  -12.6413   -3.5662   -2.9636 C   0  0  0  0  0  0
  -12.9522   -5.1664   -3.2165 C   0  0  0  0  0  0
  -13.5481   -5.3299   -4.6138 C   0  0  0  0  0  0
  -11.7154   -6.1589   -3.0430 C   0  0  0  0  0  0
  -10.4213   -6.1749   -4.0144 C   0  0  0  0  0  0
  -10.0468   -7.4164   -4.8946 C   0  0  0  0  0  0
   -8.5928   -7.4676   -5.5522 C   0  0  0  0  0  0
   -8.2922   -8.0161   -7.0025 C   0  0  0  0  0  0
   -6.8280   -8.3181   -7.4176 C   0  0  0  0  0  0
   -6.2347   -7.4500   -8.5938 C   0  0  0  0  0  0
   -4.9425   -6.6828   -8.2870 C   0  0  0  0  0  0
   -4.4759   -5.5924   -9.2929 C   0  0  0  0  0  0
   -3.3698   -4.5706   -8.8956 C   0  0  0  0  0  0
   -1.9663   -5.1298   -8.7092 C   0  0  0  0  0  0
   -3.3607   -3.4204   -9.8193 N   0  0  0  0  0  0
   -3.9185   -6.3348  -10.4073 O   0  0  0  0  0  0
   -5.9946   -8.3187   -9.7062 O   0  0  0  0  0  0
  -10.6478   -5.1067   -4.9494 O   0  0  0  0  0  0
  -13.3365   -1.8112   -1.4732 O   0  0  0  0  0  0
  -12.5668   -0.7318   -1.7695 C   0  0  0  0  0  0
  -12.6877   -0.0061   -2.7380 O   0  0  0  0  0  0
  -11.5946   -0.5168   -0.6426 C   0  0  0  0  0  0
  -11.7398    0.8691    0.0060 C   0  0  0  0  0  0
  -11.4494    2.0118   -0.9755 C   0  0  0  0  0  0
  -10.5688    3.0638   -0.3422 C   0  0  0  0  0  0
  -10.9895    3.9402    0.4052 O   0  0  0  0  0  0
   -9.2746    2.9480   -0.6746 O   0  0  0  0  0  0
  -13.1915    0.9549    0.4973 C   0  0  0  0  0  0
  -14.1007    0.3014    0.0087 O   0  0  0  0  0  0
  -13.3916    1.8457    1.4783 O   0  0  0  0  0  0
  -13.2710   -5.3909   -0.4617 O   0  0  0  0  0  0
  -13.3217   -6.2244    0.6433 C   0  0  0  0  0  0
  -13.9748   -6.0014    1.6543 O   0  0  0  0  0  0
  -12.4590   -7.4809    0.4668 C   0  0  0  0  0  0
  -11.1214   -7.2805   -0.3111 C   0  0  0  0  0  0
   -9.9132   -6.7190    0.4605 C   0  0  0  0  0  0
   -9.4548   -7.6212    1.5698 C   0  0  0  0  0  0
   -9.7974   -8.7844    1.7311 O   0  0  0  0  0  0
   -8.5841   -7.0191    2.3942 O   0  0  0  0  0  0
  -10.6356   -8.5191   -1.0740 C   0  0  0  0  0  0
   -9.5943   -9.0888   -0.8135 O   0  0  0  0  0  0
  -11.4950   -9.0076   -1.9928 O   0  0  0  0  0  0
   -4.3069   -3.0508   -9.9019 H   0  0  0  0  0  0
   -3.1263   -3.7557  -10.7563 H   0  0  0  0  0  0
   -3.1721   -6.8385  -10.0195 H   0  0  0  0  0  0
   -5.5263   -7.8102  -10.3938 H   0  0  0  0  0  0
  -10.6200   -4.2676   -4.4598 H   0  0  0  0  0  0
   -9.0384    2.1289   -1.1507 H   0  0  0  0  0  0
  -14.3081    1.8463    1.8509 H   0  0  0  0  0  0
   -8.2389   -7.7133    2.9944 H   0  0  0  0  0  0
  -11.1961   -9.8213   -2.4562 H   0  0  0  0  0  0
  1  2  1  0  0  0
  2  3  1  0  0  0
  3  4  1  0  0  0
  4  5  1  0  0  0
  5  6  1  0  0  0
  5  7  1  0  0  0
  7  8  1  0  0  0
  7 39  1  0  0  0
  8  9  1  0  0  0
  8 27  1  0  0  0
  9 10  1  0  0  0
 10 11  1  0  0  0
 10 12  1  0  0  0
 12 13  1  0  0  0
 13 14  1  0  0  0
 13 26  1  0  0  0
 14 15  1  0  0  0
 15 16  1  0  0  0
 16 17  1  0  0  0
 17 18  1  0  0  0
 18 19  1  0  0  0
 18 25  1  0  0  0
 19 20  1  0  0  0
 20 21  1  0  0  0
 20 24  1  0  0  0
 21 22  1  0  0  0
 21 23  1  0  0  0
 23 51  1  0  0  0
 23 52  1  0  0  0
 24 53  1  0  0  0
 25 54  1  0  0  0
 26 55  1  0  0  0
 27 28  1  0  0  0
 28 29  2  0  0  0
 28 30  1  0  0  0
 30 31  1  0  0  0
 31 32  1  0  0  0
 31 36  1  0  0  0
 32 33  1  0  0  0
 33 34  2  0  0  0
 33 35  1  0  0  0
 35 56  1  0  0  0
 36 37  2  0  0  0
 36 38  1  0  0  0
 38 57  1  0  0  0
 39 40  1  0  0  0
 40 41  2  0  0  0
 40 42  1  0  0  0
 42 43  1  0  0  0
 43 44  1  0  0  0
 43 48  1  0  0  0
 44 45  1  0  0  0
 45 46  2  0  0  0
 45 47  1  0  0  0
 47 58  1  0  0  0
 48 49  2  0  0  0
 48 50  1  0  0  0
 50 59  1  0  0  0
M  END
>  <AUTHOR>
    GENERATED BY OPEN BABEL 2.4.1

>  <CHROM.1>
-175.73621131,102.40837303,63.09108739,-53.44483620,162.00743762,22.67403679
-17.55151765,142.96317918,152.70014487,-66.50342256,-116.91215469,-166.15470573
66.41686698,-141.47874699,-166.18548470,-116.28842811,123.79718724,-167.55884515
-173.04768850,166.27853772,68.21083997,-61.17537937,50.72258912,116.87393213
-120.86176814,-62.17833522,-135.19753583,-24.88135217,-80.95787444,-9.80650075
-174.87400603,33.87114522,36.27826814,81.38886532,63.12762026,-116.58107975
13.07967376,-171.50120189,-177.77622245,-10.24112327,-4.30085723,-2.21105636
2.82784227,0.96685048,-0.12693617

>  <COMPND>
    UNNAMED

>  <MASTER>
        0    0    0    0    0    0    0    0  109    0  109    0

>  <Name>
FB1.pdb

>  <RI>
0

>  <Rbt.Current_Directory>
/cluster/tossine/FB1_39T3/p3/1_clust02

>  <Rbt.Executable>
rbdock/0.1.0

>  <Rbt.Library>
librxdock.so/0.1.0

>  <Rbt.Parameter_File>
/cluster/rxdock/data/scripts/dock.prm

>  <Rbt.Receptor>
rx_1.prm

>  <SCORE>
27.3112

>  <SCORE.INTER>
-4.01852

>  <SCORE.INTER.CONST>
1

>  <SCORE.INTER.POLAR>
-3.7465

>  <SCORE.INTER.REPUL>
0.0659672

>  <SCORE.INTER.ROT>
32

>  <SCORE.INTER.VDW>
-29.0102

>  <SCORE.INTER.norm>
-0.0803704

>  <SCORE.INTRA>
28.5008

>  <SCORE.INTRA.DIHEDRAL>
46.9196

>  <SCORE.INTRA.DIHEDRAL.0>
47.3121

>  <SCORE.INTRA.POLAR>
1.14221

>  <SCORE.INTRA.POLAR.0>
-1.47808

>  <SCORE.INTRA.REPUL>
0

>  <SCORE.INTRA.REPUL.0>
0

>  <SCORE.INTRA.VDW>
1.15747

>  <SCORE.INTRA.VDW.0>
-2.78316

>  <SCORE.INTRA.norm>
0.570016

>  <SCORE.RESTR>
2.82895

>  <SCORE.RESTR.CAVITY>
2.82895

>  <SCORE.RESTR.norm>
0.056579

>  <SCORE.SYSTEM>
0

>  <SCORE.SYSTEM.CONST>
0

>  <SCORE.SYSTEM.DIHEDRAL>
0

>  <SCORE.SYSTEM.norm>
0

>  <SCORE.heavy>
50

>  <SCORE.norm>
0.546225

$$$$
