FB1.pdb
  RxDock  10072008043D
librxdock.so/0.1.0
 59 58  0  0  0  0  0  0  0  0999 V2000
   -9.2741   -2.6802   -8.8495 C   0  0  0  0  0  0
   -9.0766   -3.4863  -10.1311 C   0  0  0  0  0  0
   -8.4038   -4.8408   -9.8538 C   0  0  0  0  0  0
   -6.8588   -4.7585   -9.7762 C   0  0  0  0  0  0
   -6.1197   -4.8805  -11.1543 C   0  0  0  0  0  0
   -6.3979   -3.5966  -11.9697 C   0  0  0  0  0  0
   -4.5601   -5.1381  -11.0158 C   0  0  0  0  0  0
   -3.7080   -4.0292  -10.2345 C   0  0  0  0  0  0
   -3.8268   -2.4593  -10.4570 C   0  0  0  0  0  0
   -2.4275   -1.7083  -10.9035 C   0  0  0  0  0  0
   -2.7638   -0.2920  -11.3674 C   0  0  0  0  0  0
   -1.2773   -1.6507   -9.7997 C   0  0  0  0  0  0
    0.2163   -2.2352  -10.0138 C   0  0  0  0  0  0
    1.4147   -1.8396   -9.0845 C   0  0  0  0  0  0
    2.3838   -0.6625   -9.5582 C   0  0  0  0  0  0
    2.0165    0.3981  -10.6694 C   0  0  0  0  0  0
    0.8248    1.3648  -10.4397 C   0  0  0  0  0  0
    1.0844    2.5890   -9.4790 C   0  0  0  0  0  0
    0.2892    3.8664   -9.7762 C   0  0  0  0  0  0
    1.0166    5.2348   -9.6466 C   0  0  0  0  0  0
    0.3195    6.5485  -10.1087 C   0  0  0  0  0  0
   -0.8904    6.9943   -9.2995 C   0  0  0  0  0  0
    1.2983    7.6444  -10.2409 N   0  0  0  0  0  0
    1.2301    5.4041   -8.2219 O   0  0  0  0  0  0
    0.7904    2.1711   -8.1416 O   0  0  0  0  0  0
    0.0808   -3.6587   -9.8658 O   0  0  0  0  0  0
   -3.9968   -4.2153   -8.8223 O   0  0  0  0  0  0
   -2.9374   -4.2254   -7.9721 C   0  0  0  0  0  0
   -1.7642   -4.2948   -8.2854 O   0  0  0  0  0  0
   -3.4494   -4.0332   -6.5713 C   0  0  0  0  0  0
   -2.7026   -2.9215   -5.8171 C   0  0  0  0  0  0
   -3.2552   -2.6950   -4.4040 C   0  0  0  0  0  0
   -2.2005   -2.1102   -3.4935 C   0  0  0  0  0  0
   -1.4587   -1.1894   -3.8185 O   0  0  0  0  0  0
   -2.1520   -2.6949   -2.2874 O   0  0  0  0  0  0
   -1.2376   -3.3735   -5.7419 C   0  0  0  0  0  0
   -0.9065   -4.5287   -5.5221 O   0  0  0  0  0  0
   -0.3454   -2.3844   -5.8887 O   0  0  0  0  0  0
   -4.2861   -6.5054  -10.5106 O   0  0  0  0  0  0
   -4.7775   -7.5837  -11.2275 C   0  0  0  0  0  0
   -5.1279   -7.5392  -12.3995 O   0  0  0  0  0  0
   -4.8382   -8.8653  -10.3860 C   0  0  0  0  0  0
   -5.8220   -8.8347   -9.1753 C   0  0  0  0  0  0
   -5.6914   -9.9377   -8.1091 C   0  0  0  0  0  0
   -6.6345   -9.7530   -6.9555 C   0  0  0  0  0  0
   -7.6031   -9.0059   -6.9382 O   0  0  0  0  0  0
   -6.3189  -10.5267   -5.9057 O   0  0  0  0  0  0
   -5.8796   -7.4931   -8.4343 C   0  0  0  0  0  0
   -6.9230   -6.9289   -8.1703 O   0  0  0  0  0  0
   -4.6937   -7.0230   -7.9940 O   0  0  0  0  0  0
    1.8817    7.4743  -11.0589 H   0  0  0  0  0  0
    1.9409    7.6060   -9.4464 H   0  0  0  0  0  0
    0.3302    5.3818   -7.8333 H   0  0  0  0  0  0
   -0.1372    1.8725   -8.1132 H   0  0  0  0  0  0
   -0.3731   -4.0012  -10.6539 H   0  0  0  0  0  0
   -1.3231   -2.5562   -1.7902 H   0  0  0  0  0  0
    0.5993   -2.6725   -5.8315 H   0  0  0  0  0  0
   -5.7063  -11.2161   -6.2384 H   0  0  0  0  0  0
   -3.9404   -7.6502   -8.0671 H   0  0  0  0  0  0
  1  2  1  0  0  0
  2  3  1  0  0  0
  3  4  1  0  0  0
  4  5  1  0  0  0
  5  6  1  0  0  0
  5  7  1  0  0  0
  7  8  1  0  0  0
  7 39  1  0  0  0
  8  9  1  0  0  0
  8 27  1  0  0  0
  9 10  1  0  0  0
 10 11  1  0  0  0
 10 12  1  0  0  0
 12 13  1  0  0  0
 13 14  1  0  0  0
 13 26  1  0  0  0
 14 15  1  0  0  0
 15 16  1  0  0  0
 16 17  1  0  0  0
 17 18  1  0  0  0
 18 19  1  0  0  0
 18 25  1  0  0  0
 19 20  1  0  0  0
 20 21  1  0  0  0
 20 24  1  0  0  0
 21 22  1  0  0  0
 21 23  1  0  0  0
 23 51  1  0  0  0
 23 52  1  0  0  0
 24 53  1  0  0  0
 25 54  1  0  0  0
 26 55  1  0  0  0
 27 28  1  0  0  0
 28 29  2  0  0  0
 28 30  1  0  0  0
 30 31  1  0  0  0
 31 32  1  0  0  0
 31 36  1  0  0  0
 32 33  1  0  0  0
 33 34  2  0  0  0
 33 35  1  0  0  0
 35 56  1  0  0  0
 36 37  2  0  0  0
 36 38  1  0  0  0
 38 57  1  0  0  0
 39 40  1  0  0  0
 40 41  2  0  0  0
 40 42  1  0  0  0
 42 43  1  0  0  0
 43 44  1  0  0  0
 43 48  1  0  0  0
 44 45  1  0  0  0
 45 46  2  0  0  0
 45 47  1  0  0  0
 47 58  1  0  0  0
 48 49  2  0  0  0
 48 50  1  0  0  0
 50 59  1  0  0  0
M  END
>  <AUTHOR>
    GENERATED BY OPEN BABEL 2.4.1

>  <CHROM.1>
-84.02076841,-86.42191399,70.01901444,-59.69361937,-45.98658278,57.61435858
-121.80123972,133.42179984,167.85934252,123.21595114,163.49084254,-96.09625318
72.52376997,17.94919936,62.86562518,77.68571013,149.41375546,-139.53052476
-58.45956792,172.14916925,67.43462765,-59.15309631,71.80714334,-11.78502573
-129.67163637,178.14492674,154.33599689,-40.34378414,44.86973128,160.98966551
179.42002929,19.16567956,64.52107661,-165.77825548,176.47743695,130.23184209
14.85397891,-16.31675027,-9.21802659,-2.92602294,-2.86698706,-8.65440061
2.51522451,0.87163960,2.28361480

>  <COMPND>
    UNNAMED

>  <MASTER>
        0    0    0    0    0    0    0    0  109    0  109    0

>  <Name>
FB1.pdb

>  <RI>
0

>  <Rbt.Current_Directory>
/cluster/tossine/FB1_39T3/p3/1_clust02

>  <Rbt.Executable>
rbdock/0.1.0

>  <Rbt.Library>
librxdock.so/0.1.0

>  <Rbt.Parameter_File>
/cluster/rxdock/data/scripts/dock.prm

>  <Rbt.Receptor>
rx_1.prm

>  <SCORE>
9.91783

>  <SCORE.INTER>
-6.1931

>  <SCORE.INTER.CONST>
1

>  <SCORE.INTER.POLAR>
-3.28229

>  <SCORE.INTER.REPUL>
0.54991

>  <SCORE.INTER.ROT>
32

>  <SCORE.INTER.VDW>
-35.1829

>  <SCORE.INTER.norm>
-0.123862

>  <SCORE.INTRA>
15.8588

>  <SCORE.INTRA.DIHEDRAL>
22.9719

>  <SCORE.INTRA.DIHEDRAL.0>
47.3121

>  <SCORE.INTRA.POLAR>
1.47808

>  <SCORE.INTRA.POLAR.0>
-1.47808

>  <SCORE.INTRA.REPUL>
0

>  <SCORE.INTRA.REPUL.0>
0

>  <SCORE.INTRA.VDW>
-0.652609

>  <SCORE.INTRA.VDW.0>
-2.78316

>  <SCORE.INTRA.norm>
0.317176

>  <SCORE.RESTR>
0.252128

>  <SCORE.RESTR.CAVITY>
0.252128

>  <SCORE.RESTR.norm>
0.00504257

>  <SCORE.SYSTEM>
0

>  <SCORE.SYSTEM.CONST>
0

>  <SCORE.SYSTEM.DIHEDRAL>
0

>  <SCORE.SYSTEM.norm>
0

>  <SCORE.heavy>
50

>  <SCORE.norm>
0.198357

$$$$
