FB1.pdb
  RxDock  10072009123D
librxdock.so/0.1.0
 59 58  0  0  0  0  0  0  0  0999 V2000
    3.6422    0.5044   -4.1743 C   0  0  0  0  0  0
    3.0176    1.7959   -4.6969 C   0  0  0  0  0  0
    1.5053    1.6437   -4.9293 C   0  0  0  0  0  0
    1.1052    1.6653   -6.4257 C   0  0  0  0  0  0
    0.9958    0.2541   -7.1017 C   0  0  0  0  0  0
    2.1382   -0.6347   -6.5578 C   0  0  0  0  0  0
   -0.4144   -0.4419   -6.8899 C   0  0  0  0  0  0
   -0.7150   -1.7524   -7.7607 C   0  0  0  0  0  0
   -2.1396   -2.1618   -8.3361 C   0  0  0  0  0  0
   -2.1576   -3.5381   -9.2454 C   0  0  0  0  0  0
   -1.9176   -4.7321   -8.3229 C   0  0  0  0  0  0
   -3.4713   -3.7894  -10.1147 C   0  0  0  0  0  0
   -4.2696   -5.1960  -10.1673 C   0  0  0  0  0  0
   -5.2641   -5.6402   -9.0405 C   0  0  0  0  0  0
   -4.7986   -6.7824   -8.0266 C   0  0  0  0  0  0
   -5.1670   -8.3106   -8.1796 C   0  0  0  0  0  0
   -4.7311   -9.3158   -7.0810 C   0  0  0  0  0  0
   -4.4926   -8.7244   -5.6379 C   0  0  0  0  0  0
   -4.6616   -9.7006   -4.4670 C   0  0  0  0  0  0
   -5.0777   -9.1269   -3.0829 C   0  0  0  0  0  0
   -5.4240  -10.0816   -1.9022 C   0  0  0  0  0  0
   -6.3860  -11.2202   -2.2114 C   0  0  0  0  0  0
   -4.1969  -10.5881   -1.2586 N   0  0  0  0  0  0
   -3.9204   -8.3774   -2.6326 O   0  0  0  0  0  0
   -3.1662   -8.1873   -5.5944 O   0  0  0  0  0  0
   -5.0646   -5.1253  -11.3629 O   0  0  0  0  0  0
    0.1356   -1.6633   -8.9359 O   0  0  0  0  0  0
    1.3786   -2.2027   -8.8401 C   0  0  0  0  0  0
    1.6696   -3.2453   -8.2853 O   0  0  0  0  0  0
    2.3316   -1.3449   -9.6258 C   0  0  0  0  0  0
    1.7246    0.0146  -10.0077 C   0  0  0  0  0  0
    2.7824    1.1194  -10.1254 C   0  0  0  0  0  0
    2.1484    2.4462  -10.4731 C   0  0  0  0  0  0
    1.6760    2.7042  -11.5749 O   0  0  0  0  0  0
    2.1488    3.3213   -9.4567 O   0  0  0  0  0  0
    1.0336   -0.1975  -11.3618 C   0  0  0  0  0  0
    1.5534    0.0928  -12.4285 O   0  0  0  0  0  0
   -0.2123   -0.6837  -11.2768 O   0  0  0  0  0  0
   -0.6943   -0.6573   -5.4494 O   0  0  0  0  0  0
   -1.9787   -1.0140   -5.0736 C   0  0  0  0  0  0
   -2.9691   -0.8995   -5.7838 O   0  0  0  0  0  0
   -2.0343   -1.5791   -3.6482 C   0  0  0  0  0  0
   -3.0900   -2.7021   -3.4055 C   0  0  0  0  0  0
   -2.7127   -3.8576   -2.4606 C   0  0  0  0  0  0
   -3.3154   -3.7172   -1.0926 C   0  0  0  0  0  0
   -3.0752   -2.8208   -0.2955 O   0  0  0  0  0  0
   -4.1931   -4.6937   -0.8158 O   0  0  0  0  0  0
   -4.4715   -2.1958   -2.9727 C   0  0  0  0  0  0
   -4.6402   -1.4886   -1.9989 O   0  0  0  0  0  0
   -5.4873   -2.4983   -3.8080 O   0  0  0  0  0  0
   -3.4651   -9.8829   -1.3334 H   0  0  0  0  0  0
   -3.8507  -11.3852   -1.7974 H   0  0  0  0  0  0
   -4.2255   -7.9150   -1.8236 H   0  0  0  0  0  0
   -2.9696   -7.7914   -6.4634 H   0  0  0  0  0  0
   -4.4659   -4.9759  -12.1137 H   0  0  0  0  0  0
    2.3781    2.9468   -8.5846 H   0  0  0  0  0  0
   -0.4568   -1.0312  -10.3834 H   0  0  0  0  0  0
   -4.1933   -5.2987   -1.5874 H   0  0  0  0  0  0
   -5.2269   -2.9616   -4.6349 H   0  0  0  0  0  0
  1  2  1  0  0  0
  2  3  1  0  0  0
  3  4  1  0  0  0
  4  5  1  0  0  0
  5  6  1  0  0  0
  5  7  1  0  0  0
  7  8  1  0  0  0
  7 39  1  0  0  0
  8  9  1  0  0  0
  8 27  1  0  0  0
  9 10  1  0  0  0
 10 11  1  0  0  0
 10 12  1  0  0  0
 12 13  1  0  0  0
 13 14  1  0  0  0
 13 26  1  0  0  0
 14 15  1  0  0  0
 15 16  1  0  0  0
 16 17  1  0  0  0
 17 18  1  0  0  0
 18 19  1  0  0  0
 18 25  1  0  0  0
 19 20  1  0  0  0
 20 21  1  0  0  0
 20 24  1  0  0  0
 21 22  1  0  0  0
 21 23  1  0  0  0
 23 51  1  0  0  0
 23 52  1  0  0  0
 24 53  1  0  0  0
 25 54  1  0  0  0
 26 55  1  0  0  0
 27 28  1  0  0  0
 28 29  2  0  0  0
 28 30  1  0  0  0
 30 31  1  0  0  0
 31 32  1  0  0  0
 31 36  1  0  0  0
 32 33  1  0  0  0
 33 34  2  0  0  0
 33 35  1  0  0  0
 35 56  1  0  0  0
 36 37  2  0  0  0
 36 38  1  0  0  0
 38 57  1  0  0  0
 39 40  1  0  0  0
 40 41  2  0  0  0
 40 42  1  0  0  0
 42 43  1  0  0  0
 43 44  1  0  0  0
 43 48  1  0  0  0
 44 45  1  0  0  0
 45 46  2  0  0  0
 45 47  1  0  0  0
 47 58  1  0  0  0
 48 49  2  0  0  0
 48 50  1  0  0  0
 50 59  1  0  0  0
M  END
>  <AUTHOR>
    GENERATED BY OPEN BABEL 2.4.1

>  <CHROM.1>
-110.64995136,93.76974223,-38.78396618,169.06303611,-145.41266125,167.76322309
177.98939636,89.18567444,70.07932246,-132.41793611,79.67597409,-105.85855511
57.63356897,-96.76549033,-176.16404230,24.72079592,154.50861194,-152.78430184
36.25029820,172.89745440,-48.22992920,172.34907632,31.05345738,40.04882657
13.47934607,150.28391325,-178.81104495,-97.77990574,-71.64217745,-12.18973781
-12.92618655,-16.04739249,-145.89959388,142.83854948,101.53580590,-56.07514635
-63.82675907,2.48983916,-3.75151105,-1.72354304,-3.12455624,-6.47162033,-0.31243579
0.98619612,1.38243362

>  <COMPND>
    UNNAMED

>  <MASTER>
        0    0    0    0    0    0    0    0  109    0  109    0

>  <Name>
FB1.pdb

>  <RI>
0

>  <Rbt.Current_Directory>
/cluster/tossine/FB1_39T3/p3/1_clust02

>  <Rbt.Executable>
rbdock/0.1.0

>  <Rbt.Library>
librxdock.so/0.1.0

>  <Rbt.Parameter_File>
/cluster/rxdock/data/scripts/dock.prm

>  <Rbt.Receptor>
rx_3.prm

>  <SCORE>
37.6778

>  <SCORE.INTER>
4.33212

>  <SCORE.INTER.CONST>
1

>  <SCORE.INTER.POLAR>
-2.00484

>  <SCORE.INTER.REPUL>
0.663458

>  <SCORE.INTER.ROT>
32

>  <SCORE.INTER.VDW>
-29.5687

>  <SCORE.INTER.norm>
0.0866424

>  <SCORE.INTRA>
30.9325

>  <SCORE.INTRA.DIHEDRAL>
41.0977

>  <SCORE.INTRA.DIHEDRAL.0>
47.3121

>  <SCORE.INTRA.POLAR>
0.538407

>  <SCORE.INTRA.POLAR.0>
-1.47808

>  <SCORE.INTRA.REPUL>
0.00339629

>  <SCORE.INTRA.REPUL.0>
0

>  <SCORE.INTRA.VDW>
8.5361

>  <SCORE.INTRA.VDW.0>
-2.78316

>  <SCORE.INTRA.norm>
0.61865

>  <SCORE.RESTR>
2.41314

>  <SCORE.RESTR.CAVITY>
2.41314

>  <SCORE.RESTR.norm>
0.0482628

>  <SCORE.SYSTEM>
0

>  <SCORE.SYSTEM.CONST>
0

>  <SCORE.SYSTEM.DIHEDRAL>
0

>  <SCORE.SYSTEM.norm>
0

>  <SCORE.heavy>
50

>  <SCORE.norm>
0.753555

$$$$
