FB1.pdb
  RxDock  10072008413D
librxdock.so/0.1.0
 59 58  0  0  0  0  0  0  0  0999 V2000
  -12.7766    0.0239    2.2806 C   0  0  0  0  0  0
  -12.7895    1.1080    1.2054 C   0  0  0  0  0  0
  -11.5208    1.0646    0.3378 C   0  0  0  0  0  0
  -11.7207    0.3322   -1.0125 C   0  0  0  0  0  0
  -12.2357   -1.1447   -0.8941 C   0  0  0  0  0  0
  -13.7457   -1.1074   -0.5637 C   0  0  0  0  0  0
  -11.9599   -2.0173   -2.1904 C   0  0  0  0  0  0
  -11.9577   -3.6087   -2.0070 C   0  0  0  0  0  0
  -10.6789   -4.5438   -2.1438 C   0  0  0  0  0  0
  -10.9449   -5.9865   -2.8982 C   0  0  0  0  0  0
  -11.3426   -5.7102   -4.3472 C   0  0  0  0  0  0
   -9.7391   -7.0304   -2.8642 C   0  0  0  0  0  0
   -9.8484   -8.5605   -3.3796 C   0  0  0  0  0  0
   -9.9154   -8.9319   -4.9007 C   0  0  0  0  0  0
   -9.1538   -7.9931   -5.9437 C   0  0  0  0  0  0
   -7.5823   -7.8902   -6.0641 C   0  0  0  0  0  0
   -6.8492   -8.6672   -7.1894 C   0  0  0  0  0  0
   -5.3500   -8.2610   -7.4659 C   0  0  0  0  0  0
   -4.3676   -8.4574   -6.3045 C   0  0  0  0  0  0
   -4.4389   -9.7830   -5.4947 C   0  0  0  0  0  0
   -5.6931  -10.1185   -4.6346 C   0  0  0  0  0  0
   -5.6594  -11.4357   -3.8723 C   0  0  0  0  0  0
   -6.0292   -8.9977   -3.7360 N   0  0  0  0  0  0
   -4.3801  -10.8298   -6.4970 O   0  0  0  0  0  0
   -4.8861   -9.0206   -8.5873 O   0  0  0  0  0  0
   -8.6590   -9.2016   -2.8888 O   0  0  0  0  0  0
  -12.4476   -3.8635   -0.6626 O   0  0  0  0  0  0
  -13.7863   -4.0430   -0.5176 C   0  0  0  0  0  0
  -14.6499   -3.6697   -1.2885 O   0  0  0  0  0  0
  -14.0245   -4.8749    0.7123 C   0  0  0  0  0  0
  -13.0687   -4.5167    1.8615 C   0  0  0  0  0  0
  -11.7447   -3.9236    1.3628 C   0  0  0  0  0  0
  -10.8407   -3.5606    2.5179 C   0  0  0  0  0  0
  -10.1764   -4.3803    3.1430 O   0  0  0  0  0  0
  -10.8308   -2.2488    2.7970 O   0  0  0  0  0  0
  -13.8131   -3.4882    2.7242 C   0  0  0  0  0  0
  -13.2529   -2.5606    3.2884 O   0  0  0  0  0  0
  -15.1271   -3.7193    2.8499 O   0  0  0  0  0  0
  -12.8248   -1.5904   -3.3172 O   0  0  0  0  0  0
  -12.9938   -0.2342   -3.5411 C   0  0  0  0  0  0
  -13.9454    0.4242   -3.1419 O   0  0  0  0  0  0
  -11.8433    0.3708   -4.3564 C   0  0  0  0  0  0
  -11.0648    1.5351   -3.6686 C   0  0  0  0  0  0
   -9.8427    2.1196   -4.4003 C   0  0  0  0  0  0
  -10.1998    2.7897   -5.6957 C   0  0  0  0  0  0
  -10.2330    3.9972   -5.8889 O   0  0  0  0  0  0
  -10.4732    1.9092   -6.6706 O   0  0  0  0  0  0
  -11.9397    2.7170   -3.2327 C   0  0  0  0  0  0
  -13.0890    2.8589   -3.6009 O   0  0  0  0  0  0
  -11.3851    3.5430   -2.3209 O   0  0  0  0  0  0
   -5.3134   -8.9217   -3.0147 H   0  0  0  0  0  0
   -6.8879   -9.2296   -3.2317 H   0  0  0  0  0  0
   -5.2642  -10.8155   -6.9207 H   0  0  0  0  0  0
   -5.5909   -9.0298   -9.2609 H   0  0  0  0  0  0
   -8.7191  -10.1485   -3.0995 H   0  0  0  0  0  0
  -10.3087   -1.9937    3.5818 H   0  0  0  0  0  0
  -15.3820   -4.6740    2.8020 H   0  0  0  0  0  0
  -10.7246    2.4331   -7.4603 H   0  0  0  0  0  0
  -11.9920    4.2160   -1.9402 H   0  0  0  0  0  0
  1  2  1  0  0  0
  2  3  1  0  0  0
  3  4  1  0  0  0
  4  5  1  0  0  0
  5  6  1  0  0  0
  5  7  1  0  0  0
  7  8  1  0  0  0
  7 39  1  0  0  0
  8  9  1  0  0  0
  8 27  1  0  0  0
  9 10  1  0  0  0
 10 11  1  0  0  0
 10 12  1  0  0  0
 12 13  1  0  0  0
 13 14  1  0  0  0
 13 26  1  0  0  0
 14 15  1  0  0  0
 15 16  1  0  0  0
 16 17  1  0  0  0
 17 18  1  0  0  0
 18 19  1  0  0  0
 18 25  1  0  0  0
 19 20  1  0  0  0
 20 21  1  0  0  0
 20 24  1  0  0  0
 21 22  1  0  0  0
 21 23  1  0  0  0
 23 51  1  0  0  0
 23 52  1  0  0  0
 24 53  1  0  0  0
 25 54  1  0  0  0
 26 55  1  0  0  0
 27 28  1  0  0  0
 28 29  2  0  0  0
 28 30  1  0  0  0
 30 31  1  0  0  0
 31 32  1  0  0  0
 31 36  1  0  0  0
 32 33  1  0  0  0
 33 34  2  0  0  0
 33 35  1  0  0  0
 35 56  1  0  0  0
 36 37  2  0  0  0
 36 38  1  0  0  0
 38 57  1  0  0  0
 39 40  1  0  0  0
 40 41  2  0  0  0
 40 42  1  0  0  0
 42 43  1  0  0  0
 43 44  1  0  0  0
 43 48  1  0  0  0
 44 45  1  0  0  0
 45 46  2  0  0  0
 45 47  1  0  0  0
 47 58  1  0  0  0
 48 49  2  0  0  0
 48 50  1  0  0  0
 50 59  1  0  0  0
M  END
>  <AUTHOR>
    GENERATED BY OPEN BABEL 2.4.1

>  <CHROM.1>
98.88652771,-56.82286439,76.28465576,158.92576707,-111.96695546,43.04528124
-140.58898452,91.01547651,64.56817613,172.19443392,73.49879734,31.38853986
174.57367932,69.83663274,100.20829405,166.01523849,61.67420319,44.36227321
42.66814957,-65.78791651,-179.57027264,-73.88160109,-69.60641845,-21.29892349
38.51168990,-26.38334777,178.98078314,-144.67889847,78.40616629,175.51619684
29.72055615,-97.11651499,-121.34562322,176.09674576,64.53341994,-12.91927830
105.54313013,177.99542057,-170.98082980,-10.54356395,-3.62840584,-2.46597047
2.66029128,0.96537077,-0.55179368

>  <COMPND>
    UNNAMED

>  <MASTER>
        0    0    0    0    0    0    0    0  109    0  109    0

>  <Name>
FB1.pdb

>  <RI>
0

>  <Rbt.Current_Directory>
/cluster/tossine/FB1_39T3/p3/1_clust02

>  <Rbt.Executable>
rbdock/0.1.0

>  <Rbt.Library>
librxdock.so/0.1.0

>  <Rbt.Parameter_File>
/cluster/rxdock/data/scripts/dock.prm

>  <Rbt.Receptor>
rx_2.prm

>  <SCORE>
40.7711

>  <SCORE.INTER>
1.46456

>  <SCORE.INTER.CONST>
1

>  <SCORE.INTER.POLAR>
-0.78391

>  <SCORE.INTER.REPUL>
0.171275

>  <SCORE.INTER.ROT>
32

>  <SCORE.INTER.VDW>
-34.1265

>  <SCORE.INTER.norm>
0.0292912

>  <SCORE.INTRA>
38.4896

>  <SCORE.INTRA.DIHEDRAL>
36.0908

>  <SCORE.INTRA.DIHEDRAL.0>
47.3121

>  <SCORE.INTRA.POLAR>
0.478077

>  <SCORE.INTRA.POLAR.0>
-1.47808

>  <SCORE.INTRA.REPUL>
0

>  <SCORE.INTRA.REPUL.0>
0

>  <SCORE.INTRA.VDW>
18.8188

>  <SCORE.INTRA.VDW.0>
-2.78316

>  <SCORE.INTRA.norm>
0.769792

>  <SCORE.RESTR>
0.816922

>  <SCORE.RESTR.CAVITY>
0.816922

>  <SCORE.RESTR.norm>
0.0163384

>  <SCORE.SYSTEM>
0

>  <SCORE.SYSTEM.CONST>
0

>  <SCORE.SYSTEM.DIHEDRAL>
0

>  <SCORE.SYSTEM.norm>
0

>  <SCORE.heavy>
50

>  <SCORE.norm>
0.815422

$$$$
