FB1.pdb
  RxDock  10072008053D
librxdock.so/0.1.0
 59 58  0  0  0  0  0  0  0  0999 V2000
    2.8402    2.1013   -5.3723 C   0  0  0  0  0  0
    2.2012    1.1293   -4.3832 C   0  0  0  0  0  0
    2.6455   -0.3199   -4.6413 C   0  0  0  0  0  0
    1.8200   -1.0323   -5.7416 C   0  0  0  0  0  0
    1.9792   -0.4312   -7.1816 C   0  0  0  0  0  0
    2.9282   -1.3476   -7.9881 C   0  0  0  0  0  0
    0.6001   -0.2334   -7.9412 C   0  0  0  0  0  0
   -0.2243   -1.5578   -8.3052 C   0  0  0  0  0  0
   -1.7128   -1.8661   -7.8389 C   0  0  0  0  0  0
   -1.8426   -2.7369   -6.4438 C   0  0  0  0  0  0
   -1.7961   -1.7697   -5.2621 C   0  0  0  0  0  0
   -3.1268   -3.6748   -6.3172 C   0  0  0  0  0  0
   -3.4868   -4.8653   -7.3524 C   0  0  0  0  0  0
   -3.3592   -4.6957   -8.9052 C   0  0  0  0  0  0
   -3.9174   -5.8613   -9.8427 C   0  0  0  0  0  0
   -5.4140   -6.3660   -9.8376 C   0  0  0  0  0  0
   -5.9715   -7.0927   -8.5852 C   0  0  0  0  0  0
   -5.2145   -8.4011   -8.1333 C   0  0  0  0  0  0
   -5.6260   -8.9906   -6.7785 C   0  0  0  0  0  0
   -4.5507   -9.7432   -5.9446 C   0  0  0  0  0  0
   -4.7932  -10.0559   -4.4383 C   0  0  0  0  0  0
   -4.9236   -8.8566   -3.5098 C   0  0  0  0  0  0
   -5.9312  -10.9794   -4.2699 N   0  0  0  0  0  0
   -4.4319  -11.0402   -6.5829 O   0  0  0  0  0  0
   -5.4137   -9.3973   -9.1421 O   0  0  0  0  0  0
   -2.5846   -5.9328   -7.0161 O   0  0  0  0  0  0
   -0.2830   -1.6140   -9.7564 O   0  0  0  0  0  0
   -0.9369   -0.6039  -10.3868 C   0  0  0  0  0  0
   -0.7850    0.5863  -10.1875 O   0  0  0  0  0  0
   -1.8149   -1.1979  -11.4534 C   0  0  0  0  0  0
   -3.2172   -1.5528  -10.9336 C   0  0  0  0  0  0
   -4.0099   -0.3174  -10.4877 C   0  0  0  0  0  0
   -4.2641    0.6154  -11.6490 C   0  0  0  0  0  0
   -4.0388    0.3206  -12.8178 O   0  0  0  0  0  0
   -4.7644    1.8039  -11.2801 O   0  0  0  0  0  0
   -3.9363   -2.2457  -12.0993 C   0  0  0  0  0  0
   -3.3834   -2.5259  -13.1521 O   0  0  0  0  0  0
   -5.2394   -2.4757  -11.8870 O   0  0  0  0  0  0
   -0.2460    0.7767   -7.2605 O   0  0  0  0  0  0
    0.1957    2.0888   -7.2225 C   0  0  0  0  0  0
   -0.0900    2.8946   -6.3464 O   0  0  0  0  0  0
    1.0980    2.4358   -8.4140 C   0  0  0  0  0  0
    0.5681    3.5567   -9.3612 C   0  0  0  0  0  0
    1.1784    4.9640   -9.2286 C   0  0  0  0  0  0
    0.3541    6.0262   -9.8971 C   0  0  0  0  0  0
   -0.7315    5.8543  -10.4341 O   0  0  0  0  0  0
    0.9291    7.2369   -9.8351 O   0  0  0  0  0  0
    0.5862    3.1938  -10.8512 C   0  0  0  0  0  0
   -0.3478    3.4159  -11.5962 O   0  0  0  0  0  0
    1.7554    2.7039  -11.3141 O   0  0  0  0  0  0
   -6.7949  -10.4913   -4.5031 H   0  0  0  0  0  0
   -6.0194  -11.2117   -3.2781 H   0  0  0  0  0  0
   -3.9106  -10.8685   -7.3954 H   0  0  0  0  0  0
   -4.8221  -10.1479   -8.9495 H   0  0  0  0  0  0
   -1.6889   -5.6640   -7.2804 H   0  0  0  0  0  0
   -4.8349    1.9453  -10.3165 H   0  0  0  0  0  0
   -5.6988   -2.9451  -12.6268 H   0  0  0  0  0  0
    0.3381    7.8540  -10.3158 H   0  0  0  0  0  0
    1.8150    2.6133  -12.2911 H   0  0  0  0  0  0
  1  2  1  0  0  0
  2  3  1  0  0  0
  3  4  1  0  0  0
  4  5  1  0  0  0
  5  6  1  0  0  0
  5  7  1  0  0  0
  7  8  1  0  0  0
  7 39  1  0  0  0
  8  9  1  0  0  0
  8 27  1  0  0  0
  9 10  1  0  0  0
 10 11  1  0  0  0
 10 12  1  0  0  0
 12 13  1  0  0  0
 13 14  1  0  0  0
 13 26  1  0  0  0
 14 15  1  0  0  0
 15 16  1  0  0  0
 16 17  1  0  0  0
 17 18  1  0  0  0
 18 19  1  0  0  0
 18 25  1  0  0  0
 19 20  1  0  0  0
 20 21  1  0  0  0
 20 24  1  0  0  0
 21 22  1  0  0  0
 21 23  1  0  0  0
 23 51  1  0  0  0
 23 52  1  0  0  0
 24 53  1  0  0  0
 25 54  1  0  0  0
 26 55  1  0  0  0
 27 28  1  0  0  0
 28 29  2  0  0  0
 28 30  1  0  0  0
 30 31  1  0  0  0
 31 32  1  0  0  0
 31 36  1  0  0  0
 32 33  1  0  0  0
 33 34  2  0  0  0
 33 35  1  0  0  0
 35 56  1  0  0  0
 36 37  2  0  0  0
 36 38  1  0  0  0
 38 57  1  0  0  0
 39 40  1  0  0  0
 40 41  2  0  0  0
 40 42  1  0  0  0
 42 43  1  0  0  0
 43 44  1  0  0  0
 43 48  1  0  0  0
 44 45  1  0  0  0
 45 46  2  0  0  0
 45 47  1  0  0  0
 47 58  1  0  0  0
 48 49  2  0  0  0
 48 50  1  0  0  0
 50 59  1  0  0  0
M  END
>  <AUTHOR>
    GENERATED BY OPEN BABEL 2.4.1

>  <CHROM.1>
-83.80678444,65.41855322,102.30700840,-65.32704959,122.18175314,65.20269738
-93.15356867,-62.98847134,86.06187453,59.03947541,-43.31975502,-172.17540704
-70.00769531,58.34799510,-66.77160847,-58.29065307,170.68981797,-149.01617488
169.98133527,164.97257428,-63.87060102,76.07528989,-69.97690323,48.60246182
89.27529933,64.28653831,63.27279211,5.83987801,10.03512854,4.62768201,-178.35727590
-152.09591245,117.95158955,102.26959704,-164.06636070,134.86384447,4.12162855
178.35121052,-170.21444406,-1.83890248,-1.77457715,-8.53516630,-0.93592758
0.81872809,2.44879976

>  <COMPND>
    UNNAMED

>  <MASTER>
        0    0    0    0    0    0    0    0  109    0  109    0

>  <Name>
FB1.pdb

>  <RI>
0

>  <Rbt.Current_Directory>
/cluster/tossine/FB1_39T3/p3/1_clust02

>  <Rbt.Executable>
rbdock/0.1.0

>  <Rbt.Library>
librxdock.so/0.1.0

>  <Rbt.Parameter_File>
/cluster/rxdock/data/scripts/dock.prm

>  <Rbt.Receptor>
rx_1.prm

>  <SCORE>
-2.89717

>  <SCORE.INTER>
-13.0236

>  <SCORE.INTER.CONST>
1

>  <SCORE.INTER.POLAR>
-2.67209

>  <SCORE.INTER.REPUL>
0.403075

>  <SCORE.INTER.ROT>
32

>  <SCORE.INTER.VDW>
-43.3538

>  <SCORE.INTER.norm>
-0.260472

>  <SCORE.INTRA>
9.56555

>  <SCORE.INTRA.DIHEDRAL>
13.8424

>  <SCORE.INTRA.DIHEDRAL.0>
47.3121

>  <SCORE.INTRA.POLAR>
1.47808

>  <SCORE.INTRA.POLAR.0>
-1.47808

>  <SCORE.INTRA.REPUL>
0

>  <SCORE.INTRA.REPUL.0>
0

>  <SCORE.INTRA.VDW>
-2.38109

>  <SCORE.INTRA.VDW.0>
-2.78316

>  <SCORE.INTRA.norm>
0.191311

>  <SCORE.RESTR>
0.560859

>  <SCORE.RESTR.CAVITY>
0.560859

>  <SCORE.RESTR.norm>
0.0112172

>  <SCORE.SYSTEM>
0

>  <SCORE.SYSTEM.CONST>
0

>  <SCORE.SYSTEM.DIHEDRAL>
0

>  <SCORE.SYSTEM.norm>
0

>  <SCORE.heavy>
50

>  <SCORE.norm>
-0.0579433

$$$$
