FB1.pdb
  RxDock  10072008373D
librxdock.so/0.1.0
 59 58  0  0  0  0  0  0  0  0999 V2000
    2.0522    7.1149   -9.0495 C   0  0  0  0  0  0
    1.9006    5.6185   -9.3127 C   0  0  0  0  0  0
    0.4275    5.2198   -9.5004 C   0  0  0  0  0  0
    0.2087    3.6888   -9.5906 C   0  0  0  0  0  0
    0.8937    2.9939  -10.8187 C   0  0  0  0  0  0
    2.3399    2.6193  -10.4203 C   0  0  0  0  0  0
    0.1042    1.7238  -11.3492 C   0  0  0  0  0  0
   -0.2170    0.5718  -10.2835 C   0  0  0  0  0  0
   -0.0265   -0.9866  -10.5353 C   0  0  0  0  0  0
   -1.2113   -1.9468   -9.9063 C   0  0  0  0  0  0
   -2.4135   -1.9139  -10.8485 C   0  0  0  0  0  0
   -0.8056   -3.4608   -9.6094 C   0  0  0  0  0  0
   -1.7898   -4.5460   -8.9222 C   0  0  0  0  0  0
   -3.2221   -4.8528   -9.4795 C   0  0  0  0  0  0
   -4.0743   -6.0091   -8.7825 C   0  0  0  0  0  0
   -5.5518   -6.3920   -9.1887 C   0  0  0  0  0  0
   -6.7432   -5.6489   -8.5284 C   0  0  0  0  0  0
   -8.1763   -6.2663   -8.7614 C   0  0  0  0  0  0
   -8.3099   -7.7775   -8.5357 C   0  0  0  0  0  0
   -7.7404   -8.3797   -7.2199 C   0  0  0  0  0  0
   -6.2161   -8.6640   -7.0744 C   0  0  0  0  0  0
   -5.7775   -9.3717   -5.8000 C   0  0  0  0  0  0
   -5.6943   -9.3561   -8.2682 N   0  0  0  0  0  0
   -8.0361   -7.3880   -6.2036 O   0  0  0  0  0  0
   -9.0937   -5.5938   -7.8920 O   0  0  0  0  0  0
   -1.0799   -5.7933   -9.0051 O   0  0  0  0  0  0
    0.6089    0.8520   -9.1208 O   0  0  0  0  0  0
    0.2460    0.2654   -7.9506 C   0  0  0  0  0  0
   -0.6767   -0.5108   -7.7907 O   0  0  0  0  0  0
    1.2417    0.6561   -6.8935 C   0  0  0  0  0  0
    1.6951   -0.5385   -6.0392 C   0  0  0  0  0  0
    2.9457   -1.2247   -6.6035 C   0  0  0  0  0  0
    2.6425   -1.9221   -7.9093 C   0  0  0  0  0  0
    1.6341   -2.5927   -8.1019 O   0  0  0  0  0  0
    3.5849   -1.7367   -8.8455 O   0  0  0  0  0  0
    1.9916    0.0289   -4.6442 C   0  0  0  0  0  0
    3.0897    0.4517   -4.3157 O   0  0  0  0  0  0
    0.9563   -0.0224   -3.7947 O   0  0  0  0  0  0
   -1.1024    2.1241  -12.1134 O   0  0  0  0  0  0
   -1.3662    3.4748  -12.2685 C   0  0  0  0  0  0
   -0.5752    4.2912  -12.7225 O   0  0  0  0  0  0
   -2.7797    3.8505  -11.8045 C   0  0  0  0  0  0
   -3.9305    3.5247  -12.8066 C   0  0  0  0  0  0
   -5.0959    4.5245  -12.9196 C   0  0  0  0  0  0
   -5.5087    5.0965  -11.5941 C   0  0  0  0  0  0
   -4.9744    6.0391  -11.0261 O   0  0  0  0  0  0
   -6.5731    4.4675  -11.0729 O   0  0  0  0  0  0
   -3.4637    3.2101  -14.2332 C   0  0  0  0  0  0
   -2.4364    3.6557  -14.7052 O   0  0  0  0  0  0
   -4.2164    2.3133  -14.9045 O   0  0  0  0  0  0
   -6.2526  -10.1910   -8.4410 H   0  0  0  0  0  0
   -4.7562   -9.7051   -8.0595 H   0  0  0  0  0  0
   -7.4455   -6.6345   -6.4150 H   0  0  0  0  0  0
   -9.9942   -5.9022   -8.1028 H   0  0  0  0  0  0
   -1.5973   -6.4659   -8.5313 H   0  0  0  0  0  0
    4.3868   -1.2692   -8.5425 H   0  0  0  0  0  0
    0.1502   -0.4670   -4.1572 H   0  0  0  0  0  0
   -6.9089    3.8610  -11.7663 H   0  0  0  0  0  0
   -4.9807    1.9492  -14.4050 H   0  0  0  0  0  0
  1  2  1  0  0  0
  2  3  1  0  0  0
  3  4  1  0  0  0
  4  5  1  0  0  0
  5  6  1  0  0  0
  5  7  1  0  0  0
  7  8  1  0  0  0
  7 39  1  0  0  0
  8  9  1  0  0  0
  8 27  1  0  0  0
  9 10  1  0  0  0
 10 11  1  0  0  0
 10 12  1  0  0  0
 12 13  1  0  0  0
 13 14  1  0  0  0
 13 26  1  0  0  0
 14 15  1  0  0  0
 15 16  1  0  0  0
 16 17  1  0  0  0
 17 18  1  0  0  0
 18 19  1  0  0  0
 18 25  1  0  0  0
 19 20  1  0  0  0
 20 21  1  0  0  0
 20 24  1  0  0  0
 21 22  1  0  0  0
 21 23  1  0  0  0
 23 51  1  0  0  0
 23 52  1  0  0  0
 24 53  1  0  0  0
 25 54  1  0  0  0
 26 55  1  0  0  0
 27 28  1  0  0  0
 28 29  2  0  0  0
 28 30  1  0  0  0
 30 31  1  0  0  0
 31 32  1  0  0  0
 31 36  1  0  0  0
 32 33  1  0  0  0
 33 34  2  0  0  0
 33 35  1  0  0  0
 35 56  1  0  0  0
 36 37  2  0  0  0
 36 38  1  0  0  0
 38 57  1  0  0  0
 39 40  1  0  0  0
 40 41  2  0  0  0
 40 42  1  0  0  0
 42 43  1  0  0  0
 43 44  1  0  0  0
 43 48  1  0  0  0
 44 45  1  0  0  0
 45 46  2  0  0  0
 45 47  1  0  0  0
 47 58  1  0  0  0
 48 49  2  0  0  0
 48 50  1  0  0  0
 50 59  1  0  0  0
M  END
>  <AUTHOR>
    GENERATED BY OPEN BABEL 2.4.1

>  <CHROM.1>
-172.67352613,-63.11399193,87.33256081,-54.85120478,-135.17160007,0.51676124
-140.58969051,161.30639147,79.77792693,176.64518221,53.72894364,176.10560020
174.94235689,177.26034261,-87.73270683,-168.32137023,47.63024864,49.17157298
173.80547054,-79.92788602,-174.51921814,-69.80187899,-53.97070877,2.80911226
-134.51881931,91.18162331,-68.24666232,-89.68354596,-43.07925370,6.70615293
3.40969490,53.98370948,-79.18189695,-142.40856770,-39.48078716,-27.61224576
82.92243066,-8.45452676,-0.55344224,-2.03328481,-0.71807942,-9.36787058,-1.06465099
0.43516889,2.65333615

>  <COMPND>
    UNNAMED

>  <MASTER>
        0    0    0    0    0    0    0    0  109    0  109    0

>  <Name>
FB1.pdb

>  <RI>
0

>  <Rbt.Current_Directory>
/cluster/tossine/FB1_39T3/p3/1_clust02

>  <Rbt.Executable>
rbdock/0.1.0

>  <Rbt.Library>
librxdock.so/0.1.0

>  <Rbt.Parameter_File>
/cluster/rxdock/data/scripts/dock.prm

>  <Rbt.Receptor>
rx_2.prm

>  <SCORE>
54.336

>  <SCORE.INTER>
31.9908

>  <SCORE.INTER.CONST>
1

>  <SCORE.INTER.POLAR>
-1.50981

>  <SCORE.INTER.REPUL>
0.534444

>  <SCORE.INTER.ROT>
32

>  <SCORE.INTER.VDW>
-2.94804

>  <SCORE.INTER.norm>
0.639817

>  <SCORE.INTRA>
20.8658

>  <SCORE.INTRA.DIHEDRAL>
19.7096

>  <SCORE.INTRA.DIHEDRAL.0>
47.3121

>  <SCORE.INTRA.POLAR>
1.47808

>  <SCORE.INTRA.POLAR.0>
-1.47808

>  <SCORE.INTRA.REPUL>
0

>  <SCORE.INTRA.REPUL.0>
0

>  <SCORE.INTRA.VDW>
5.98551

>  <SCORE.INTRA.VDW.0>
-2.78316

>  <SCORE.INTRA.norm>
0.417315

>  <SCORE.RESTR>
1.47937

>  <SCORE.RESTR.CAVITY>
1.47937

>  <SCORE.RESTR.norm>
0.0295874

>  <SCORE.SYSTEM>
0

>  <SCORE.SYSTEM.CONST>
0

>  <SCORE.SYSTEM.DIHEDRAL>
0

>  <SCORE.SYSTEM.norm>
0

>  <SCORE.heavy>
50

>  <SCORE.norm>
1.08672

$$$$
