FB1.pdb
  RxDock  10072007243D
librxdock.so/0.1.0
 59 58  0  0  0  0  0  0  0  0999 V2000
   -4.4353   -7.1165  -15.5286 C   0  0  0  0  0  0
   -5.5764   -6.5444  -14.6908 C   0  0  0  0  0  0
   -5.6637   -7.2184  -13.3115 C   0  0  0  0  0  0
   -5.5824   -6.2200  -12.1299 C   0  0  0  0  0  0
   -5.2837   -6.8699  -10.7339 C   0  0  0  0  0  0
   -4.0455   -7.7845  -10.8791 C   0  0  0  0  0  0
   -5.0723   -5.8085   -9.5735 C   0  0  0  0  0  0
   -4.7155   -6.3826   -8.1211 C   0  0  0  0  0  0
   -4.7543   -7.9178   -7.7092 C   0  0  0  0  0  0
   -6.2153   -8.4601   -7.1681 C   0  0  0  0  0  0
   -7.1302   -8.6732   -8.3730 C   0  0  0  0  0  0
   -6.1882   -9.7827   -6.2766 C   0  0  0  0  0  0
   -5.8431   -9.8048   -4.6958 C   0  0  0  0  0  0
   -5.9413  -11.1091   -3.8325 C   0  0  0  0  0  0
   -6.4445  -10.9819   -2.3226 C   0  0  0  0  0  0
   -5.5317  -10.5257   -1.1171 C   0  0  0  0  0  0
   -4.6482  -11.5724   -0.3883 C   0  0  0  0  0  0
   -3.8134  -11.0541    0.8461 C   0  0  0  0  0  0
   -4.6199  -10.5984    2.0685 C   0  0  0  0  0  0
   -4.0170   -9.4909    2.9785 C   0  0  0  0  0  0
   -4.9465   -8.5209    3.7663 C   0  0  0  0  0  0
   -4.2779   -7.3126    4.4068 C   0  0  0  0  0  0
   -6.0982   -8.1103    2.9407 N   0  0  0  0  0  0
   -3.2789  -10.2133    3.9969 O   0  0  0  0  0  0
   -2.9269  -12.1027    1.2514 O   0  0  0  0  0  0
   -4.4655   -9.4026   -4.6126 O   0  0  0  0  0  0
   -3.3491   -5.9706   -7.8458 O   0  0  0  0  0  0
   -2.9090   -6.1082   -6.5681 C   0  0  0  0  0  0
   -3.4515   -6.7447   -5.6849 O   0  0  0  0  0  0
   -1.5761   -5.4225   -6.4474 C   0  0  0  0  0  0
   -1.7090   -3.9032   -6.2562 C   0  0  0  0  0  0
   -0.7020   -3.3473   -5.2412 C   0  0  0  0  0  0
   -0.5026   -1.8613   -5.4290 C   0  0  0  0  0  0
   -1.3233   -1.0178   -5.0842 O   0  0  0  0  0  0
    0.6647   -1.5481   -6.0106 O   0  0  0  0  0  0
   -1.4606   -3.2810   -7.6372 C   0  0  0  0  0  0
   -2.3409   -2.7516   -8.2984 O   0  0  0  0  0  0
   -0.2035   -3.4094   -8.0837 O   0  0  0  0  0  0
   -4.1354   -4.7374   -9.9917 O   0  0  0  0  0  0
   -4.6466   -3.6406  -10.6652 C   0  0  0  0  0  0
   -5.8339   -3.4603  -10.9023 O   0  0  0  0  0  0
   -3.5510   -2.6546  -11.0916 C   0  0  0  0  0  0
   -3.8401   -1.8414  -12.3915 C   0  0  0  0  0  0
   -4.7297   -2.4901  -13.4677 C   0  0  0  0  0  0
   -3.9829   -2.8122  -14.7299 C   0  0  0  0  0  0
   -3.6574   -3.9317  -15.1005 O   0  0  0  0  0  0
   -3.7081   -1.7185  -15.4569 O   0  0  0  0  0  0
   -4.3791   -0.4258  -12.1514 C   0  0  0  0  0  0
   -4.5453    0.0379  -11.0405 O   0  0  0  0  0  0
   -4.5597    0.3213  -13.2607 O   0  0  0  0  0  0
   -6.6673   -8.9291    2.7305 H   0  0  0  0  0  0
   -5.7521   -7.7901    2.0334 H   0  0  0  0  0  0
   -3.9232  -10.8584    4.3576 H   0  0  0  0  0  0
   -2.7511  -12.6687    0.4772 H   0  0  0  0  0  0
   -4.3987   -8.4891   -4.9373 H   0  0  0  0  0  0
    1.2898   -2.2907   -6.1165 H   0  0  0  0  0  0
    0.4292   -3.7881   -7.4241 H   0  0  0  0  0  0
   -3.9370   -0.9452  -14.8992 H   0  0  0  0  0  0
   -4.8006    1.2606  -13.0995 H   0  0  0  0  0  0
  1  2  1  0  0  0
  2  3  1  0  0  0
  3  4  1  0  0  0
  4  5  1  0  0  0
  5  6  1  0  0  0
  5  7  1  0  0  0
  7  8  1  0  0  0
  7 39  1  0  0  0
  8  9  1  0  0  0
  8 27  1  0  0  0
  9 10  1  0  0  0
 10 11  1  0  0  0
 10 12  1  0  0  0
 12 13  1  0  0  0
 13 14  1  0  0  0
 13 26  1  0  0  0
 14 15  1  0  0  0
 15 16  1  0  0  0
 16 17  1  0  0  0
 17 18  1  0  0  0
 18 19  1  0  0  0
 18 25  1  0  0  0
 19 20  1  0  0  0
 20 21  1  0  0  0
 20 24  1  0  0  0
 21 22  1  0  0  0
 21 23  1  0  0  0
 23 51  1  0  0  0
 23 52  1  0  0  0
 24 53  1  0  0  0
 25 54  1  0  0  0
 26 55  1  0  0  0
 27 28  1  0  0  0
 28 29  2  0  0  0
 28 30  1  0  0  0
 30 31  1  0  0  0
 31 32  1  0  0  0
 31 36  1  0  0  0
 32 33  1  0  0  0
 33 34  2  0  0  0
 33 35  1  0  0  0
 35 56  1  0  0  0
 36 37  2  0  0  0
 36 38  1  0  0  0
 38 57  1  0  0  0
 39 40  1  0  0  0
 40 41  2  0  0  0
 40 42  1  0  0  0
 42 43  1  0  0  0
 43 44  1  0  0  0
 43 48  1  0  0  0
 44 45  1  0  0  0
 45 46  2  0  0  0
 45 47  1  0  0  0
 47 58  1  0  0  0
 48 49  2  0  0  0
 48 50  1  0  0  0
 50 59  1  0  0  0
M  END
>  <AUTHOR>
    GENERATED BY OPEN BABEL 2.4.1

>  <CHROM.1>
123.74427682,-164.42467080,50.86727338,-178.09652177,-8.90318778,86.72530186
-87.97908045,167.23906210,77.24129942,81.39678223,174.89381187,-144.00500743
63.91009455,-80.26358235,-84.71466196,-177.35511166,66.19938676,-150.48790679
25.91800333,150.67350988,-168.45911961,-52.35974758,63.91416441,13.46918006
81.28281481,139.96045478,159.51250497,109.83234138,74.81553440,-8.74646230
-7.13763809,2.85792516,149.94915533,-29.37418397,-112.64241841,1.31658763
106.76853178,9.44034731,-172.93265999,-4.00982019,-6.02404483,-6.94318964
1.52182601,-1.04860432,-1.16497882

>  <COMPND>
    UNNAMED

>  <MASTER>
        0    0    0    0    0    0    0    0  109    0  109    0

>  <Name>
FB1.pdb

>  <RI>
0

>  <Rbt.Current_Directory>
/cluster/tossine/FB1_39T3/p3/1_clust02

>  <Rbt.Executable>
rbdock/0.1.0

>  <Rbt.Library>
librxdock.so/0.1.0

>  <Rbt.Parameter_File>
/cluster/rxdock/data/scripts/dock.prm

>  <Rbt.Receptor>
rx_0.prm

>  <SCORE>
29.0794

>  <SCORE.INTER>
11.3933

>  <SCORE.INTER.CONST>
1

>  <SCORE.INTER.POLAR>
-2.51338

>  <SCORE.INTER.REPUL>
0.145036

>  <SCORE.INTER.ROT>
32

>  <SCORE.INTER.VDW>
-18.1863

>  <SCORE.INTER.norm>
0.227867

>  <SCORE.INTRA>
10.2126

>  <SCORE.INTRA.DIHEDRAL>
17.9197

>  <SCORE.INTRA.DIHEDRAL.0>
47.3121

>  <SCORE.INTRA.POLAR>
-0.485915

>  <SCORE.INTRA.POLAR.0>
-1.47808

>  <SCORE.INTRA.REPUL>
0

>  <SCORE.INTRA.REPUL.0>
0

>  <SCORE.INTRA.VDW>
2.90483

>  <SCORE.INTRA.VDW.0>
-2.78316

>  <SCORE.INTRA.norm>
0.204252

>  <SCORE.RESTR>
7.47349

>  <SCORE.RESTR.CAVITY>
7.47349

>  <SCORE.RESTR.norm>
0.14947

>  <SCORE.SYSTEM>
0

>  <SCORE.SYSTEM.CONST>
0

>  <SCORE.SYSTEM.DIHEDRAL>
0

>  <SCORE.SYSTEM.norm>
0

>  <SCORE.heavy>
50

>  <SCORE.norm>
0.581588

$$$$
