FB1.pdb
  RxDock  10072008383D
librxdock.so/0.1.0
 59 58  0  0  0  0  0  0  0  0999 V2000
    2.5036    1.5350  -10.9728 C   0  0  0  0  0  0
    1.7297    0.5638  -10.0843 C   0  0  0  0  0  0
    0.4998   -0.0115  -10.8059 C   0  0  0  0  0  0
   -0.4744   -0.7614   -9.8634 C   0  0  0  0  0  0
   -0.9587   -2.1581  -10.3881 C   0  0  0  0  0  0
    0.2615   -2.9073  -10.9715 C   0  0  0  0  0  0
   -1.6858   -3.0328   -9.2816 C   0  0  0  0  0  0
   -2.9164   -2.3539   -8.5129 C   0  0  0  0  0  0
   -2.9307   -1.9669   -6.9707 C   0  0  0  0  0  0
   -1.4685   -1.5267   -6.3465 C   0  0  0  0  0  0
   -1.6526   -1.1969   -4.8661 C   0  0  0  0  0  0
   -0.2849   -2.5826   -6.5162 C   0  0  0  0  0  0
    0.5241   -2.8251   -7.8965 C   0  0  0  0  0  0
    1.9834   -2.2985   -8.1187 C   0  0  0  0  0  0
    2.7671   -1.6889   -6.8684 C   0  0  0  0  0  0
    2.4839   -0.2628   -6.2513 C   0  0  0  0  0  0
    3.6642    0.7162   -6.0152 C   0  0  0  0  0  0
    4.0769    0.9749   -4.5145 C   0  0  0  0  0  0
    3.9713    2.4232   -4.0208 C   0  0  0  0  0  0
    5.2588    3.2953   -4.0131 C   0  0  0  0  0  0
    6.5930    2.7317   -3.4407 C   0  0  0  0  0  0
    7.0494    1.3858   -3.9862 C   0  0  0  0  0  0
    7.6715    3.7335   -3.5384 N   0  0  0  0  0  0
    5.5326    3.5590   -5.4129 O   0  0  0  0  0  0
    3.2552    0.1495   -3.6819 O   0  0  0  0  0  0
    0.6174   -4.2540   -8.0240 O   0  0  0  0  0  0
   -3.1842   -1.1018   -9.2006 O   0  0  0  0  0  0
   -3.7906   -1.1816  -10.4135 C   0  0  0  0  0  0
   -3.9999   -2.1981  -11.0477 O   0  0  0  0  0  0
   -4.2571    0.1938  -10.8038 C   0  0  0  0  0  0
   -4.1598    0.4426  -12.3174 C   0  0  0  0  0  0
   -5.1587   -0.4025  -13.1183 C   0  0  0  0  0  0
   -5.0047   -0.1672  -14.6030 C   0  0  0  0  0  0
   -4.4988   -0.9796  -15.3696 O   0  0  0  0  0  0
   -5.4777    1.0208  -15.0076 O   0  0  0  0  0  0
   -4.4543    1.9354  -12.5193 C   0  0  0  0  0  0
   -5.3300    2.5308  -11.9101 O   0  0  0  0  0  0
   -3.7022    2.5255  -13.4585 O   0  0  0  0  0  0
   -2.0321   -4.3770   -9.8040 O   0  0  0  0  0  0
   -3.3698   -4.7236   -9.8966 C   0  0  0  0  0  0
   -4.0134   -4.7440  -10.9377 O   0  0  0  0  0  0
   -3.9743   -5.0873   -8.5341 C   0  0  0  0  0  0
   -5.2196   -6.0265   -8.5745 C   0  0  0  0  0  0
   -6.6018   -5.3860   -8.7973 C   0  0  0  0  0  0
   -6.8160   -4.9301  -10.2118 C   0  0  0  0  0  0
   -7.4890   -5.5086  -11.0537 O   0  0  0  0  0  0
   -6.1923   -3.7723  -10.4778 O   0  0  0  0  0  0
   -5.1013   -7.2005   -9.5543 C   0  0  0  0  0  0
   -4.9580   -7.0494  -10.7516 O   0  0  0  0  0  0
   -5.0586   -8.4251   -8.9888 O   0  0  0  0  0  0
    8.4584    3.4343   -2.9641 H   0  0  0  0  0  0
    7.3487    4.6039   -3.1099 H   0  0  0  0  0  0
    6.3879    4.0382   -5.4110 H   0  0  0  0  0  0
    3.7608   -0.6526   -3.4550 H   0  0  0  0  0  0
   -0.2060   -4.5741   -8.4291 H   0  0  0  0  0  0
   -5.8971    1.0238  -15.8894 H   0  0  0  0  0  0
   -2.7277    2.4010  -13.3414 H   0  0  0  0  0  0
   -6.3541   -3.5767  -11.4248 H   0  0  0  0  0  0
   -5.1820   -8.4416   -8.0138 H   0  0  0  0  0  0
  1  2  1  0  0  0
  2  3  1  0  0  0
  3  4  1  0  0  0
  4  5  1  0  0  0
  5  6  1  0  0  0
  5  7  1  0  0  0
  7  8  1  0  0  0
  7 39  1  0  0  0
  8  9  1  0  0  0
  8 27  1  0  0  0
  9 10  1  0  0  0
 10 11  1  0  0  0
 10 12  1  0  0  0
 12 13  1  0  0  0
 13 14  1  0  0  0
 13 26  1  0  0  0
 14 15  1  0  0  0
 15 16  1  0  0  0
 16 17  1  0  0  0
 17 18  1  0  0  0
 18 19  1  0  0  0
 18 25  1  0  0  0
 19 20  1  0  0  0
 20 21  1  0  0  0
 20 24  1  0  0  0
 21 22  1  0  0  0
 21 23  1  0  0  0
 23 51  1  0  0  0
 23 52  1  0  0  0
 24 53  1  0  0  0
 25 54  1  0  0  0
 26 55  1  0  0  0
 27 28  1  0  0  0
 28 29  2  0  0  0
 28 30  1  0  0  0
 30 31  1  0  0  0
 31 32  1  0  0  0
 31 36  1  0  0  0
 32 33  1  0  0  0
 33 34  2  0  0  0
 33 35  1  0  0  0
 35 56  1  0  0  0
 36 37  2  0  0  0
 36 38  1  0  0  0
 38 57  1  0  0  0
 39 40  1  0  0  0
 40 41  2  0  0  0
 40 42  1  0  0  0
 42 43  1  0  0  0
 43 44  1  0  0  0
 43 48  1  0  0  0
 44 45  1  0  0  0
 45 46  2  0  0  0
 45 47  1  0  0  0
 47 58  1  0  0  0
 48 49  2  0  0  0
 48 50  1  0  0  0
 50 59  1  0  0  0
M  END
>  <AUTHOR>
    GENERATED BY OPEN BABEL 2.4.1

>  <CHROM.1>
-167.92172591,-133.17080427,43.57186935,53.91832210,-113.05701059,-116.19732834
31.69563492,73.89221196,-179.66625098,77.02306228,105.16750176,8.96333314
83.86629344,-75.20553609,-129.36496610,-108.91660673,-119.45826436,-97.51208382
98.01103521,-46.36252202,51.93610762,-174.98570101,166.43184735,-8.65759010
145.28832969,68.40929655,-178.11945753,-41.04729833,106.69214568,-144.33755410
-53.08269546,103.32274462,-155.49400745,-84.42083534,73.70117196,-61.07548760
103.05659688,177.54357271,4.80711552,-1.30664511,-1.45905058,-8.99407843
0.04084017,-0.68060850,-0.60223948

>  <COMPND>
    UNNAMED

>  <MASTER>
        0    0    0    0    0    0    0    0  109    0  109    0

>  <Name>
FB1.pdb

>  <RI>
0

>  <Rbt.Current_Directory>
/cluster/tossine/FB1_39T3/p3/1_clust02

>  <Rbt.Executable>
rbdock/0.1.0

>  <Rbt.Library>
librxdock.so/0.1.0

>  <Rbt.Parameter_File>
/cluster/rxdock/data/scripts/dock.prm

>  <Rbt.Receptor>
rx_2.prm

>  <SCORE>
59.8138

>  <SCORE.INTER>
6.274

>  <SCORE.INTER.CONST>
1

>  <SCORE.INTER.POLAR>
-1.82168

>  <SCORE.INTER.REPUL>
0.753198

>  <SCORE.INTER.ROT>
32

>  <SCORE.INTER.VDW>
-28.6983

>  <SCORE.INTER.norm>
0.12548

>  <SCORE.INTRA>
47.6052

>  <SCORE.INTRA.DIHEDRAL>
80.7054

>  <SCORE.INTRA.DIHEDRAL.0>
47.3121

>  <SCORE.INTRA.POLAR>
0.756456

>  <SCORE.INTRA.POLAR.0>
-1.47808

>  <SCORE.INTRA.REPUL>
0.00737734

>  <SCORE.INTRA.REPUL.0>
0

>  <SCORE.INTRA.VDW>
4.64366

>  <SCORE.INTRA.VDW.0>
-2.78316

>  <SCORE.INTRA.norm>
0.952104

>  <SCORE.RESTR>
5.93461

>  <SCORE.RESTR.CAVITY>
5.93461

>  <SCORE.RESTR.norm>
0.118692

>  <SCORE.SYSTEM>
0

>  <SCORE.SYSTEM.CONST>
0

>  <SCORE.SYSTEM.DIHEDRAL>
0

>  <SCORE.SYSTEM.norm>
0

>  <SCORE.heavy>
50

>  <SCORE.norm>
1.19628

$$$$
