FB1.pdb
  RxDock  10072009553D
librxdock.so/0.1.0
 59 58  0  0  0  0  0  0  0  0999 V2000
    5.8580    2.7180   -3.6421 C   0  0  0  0  0  0
    4.7780    1.6857   -3.9571 C   0  0  0  0  0  0
    3.5363    2.3356   -4.5896 C   0  0  0  0  0  0
    2.8914    1.4775   -5.7065 C   0  0  0  0  0  0
    1.6080    0.6857   -5.2746 C   0  0  0  0  0  0
    0.3946    1.6394   -5.3687 C   0  0  0  0  0  0
    1.3613   -0.6319   -6.1236 C   0  0  0  0  0  0
    0.1261   -1.5547   -5.6888 C   0  0  0  0  0  0
   -1.3358   -1.0277   -5.3521 C   0  0  0  0  0  0
   -2.4060   -2.1897   -4.8768 C   0  0  0  0  0  0
   -1.6496   -3.2463   -4.0733 C   0  0  0  0  0  0
   -3.6676   -1.6842   -4.0415 C   0  0  0  0  0  0
   -4.4707   -2.5937   -2.9708 C   0  0  0  0  0  0
   -3.8250   -3.0766   -1.6269 C   0  0  0  0  0  0
   -3.9960   -4.6088   -1.2120 C   0  0  0  0  0  0
   -3.1787   -5.3138   -0.0589 C   0  0  0  0  0  0
   -3.5777   -6.7419    0.3980 C   0  0  0  0  0  0
   -4.0349   -6.9002    1.8997 C   0  0  0  0  0  0
   -3.9235   -8.3077    2.4990 C   0  0  0  0  0  0
   -4.8849   -9.4111    1.9734 C   0  0  0  0  0  0
   -4.4577  -10.3383    0.7973 C   0  0  0  0  0  0
   -5.5621  -11.1591    0.1460 C   0  0  0  0  0  0
   -3.6938   -9.5848   -0.2152 N   0  0  0  0  0  0
   -5.0757  -10.3010    3.1028 O   0  0  0  0  0  0
   -3.2532   -6.0035    2.6963 O   0  0  0  0  0  0
   -5.5989   -1.7936   -2.5788 O   0  0  0  0  0  0
   -0.0739   -2.5029   -6.7720 O   0  0  0  0  0  0
   -0.6069   -2.0197   -7.9243 C   0  0  0  0  0  0
   -0.8190   -0.8505   -8.1840 O   0  0  0  0  0  0
   -0.8009   -3.1671   -8.8768 C   0  0  0  0  0  0
   -1.2304   -4.4596   -8.1645 C   0  0  0  0  0  0
   -2.5761   -4.3143   -7.4423 C   0  0  0  0  0  0
   -3.1228   -5.6620   -7.0320 C   0  0  0  0  0  0
   -2.6888   -6.3105   -6.0860 O   0  0  0  0  0  0
   -4.1353   -6.0852   -7.8031 O   0  0  0  0  0  0
   -1.3349   -5.5300   -9.2595 C   0  0  0  0  0  0
   -0.4099   -6.2695   -9.5597 O   0  0  0  0  0  0
   -2.5132   -5.5556   -9.8974 O   0  0  0  0  0  0
    1.3486   -0.3378   -7.5773 O   0  0  0  0  0  0
    2.3571   -0.8667   -8.3655 C   0  0  0  0  0  0
    2.8900   -1.9527   -8.1784 O   0  0  0  0  0  0
    2.7451    0.0658   -9.5206 C   0  0  0  0  0  0
    1.6830    0.2193  -10.6533 C   0  0  0  0  0  0
    0.3329    0.8673  -10.2958 C   0  0  0  0  0  0
    0.4685    2.2907   -9.8375 C   0  0  0  0  0  0
    0.5779    3.2675  -10.5659 O   0  0  0  0  0  0
    0.4392    2.4044   -8.5009 O   0  0  0  0  0  0
    2.1976    0.9142  -11.9200 C   0  0  0  0  0  0
    1.9546    0.5098  -13.0399 O   0  0  0  0  0  0
    2.8552    2.0751  -11.7175 O   0  0  0  0  0  0
   -3.4232  -10.2164   -0.9678 H   0  0  0  0  0  0
   -2.8118   -9.2790    0.2020 H   0  0  0  0  0  0
   -6.0397  -10.4794    3.1161 H   0  0  0  0  0  0
   -3.7090   -5.1420    2.7205 H   0  0  0  0  0  0
   -5.2701   -0.9162   -2.3208 H   0  0  0  0  0  0
   -4.9933   -6.1831   -7.3473 H   0  0  0  0  0  0
   -3.0671   -4.7461   -9.7680 H   0  0  0  0  0  0
    0.5011    1.4950   -8.1398 H   0  0  0  0  0  0
    3.0546    2.5917  -12.5297 H   0  0  0  0  0  0
  1  2  1  0  0  0
  2  3  1  0  0  0
  3  4  1  0  0  0
  4  5  1  0  0  0
  5  6  1  0  0  0
  5  7  1  0  0  0
  7  8  1  0  0  0
  7 39  1  0  0  0
  8  9  1  0  0  0
  8 27  1  0  0  0
  9 10  1  0  0  0
 10 11  1  0  0  0
 10 12  1  0  0  0
 12 13  1  0  0  0
 13 14  1  0  0  0
 13 26  1  0  0  0
 14 15  1  0  0  0
 15 16  1  0  0  0
 16 17  1  0  0  0
 17 18  1  0  0  0
 18 19  1  0  0  0
 18 25  1  0  0  0
 19 20  1  0  0  0
 20 21  1  0  0  0
 20 24  1  0  0  0
 21 22  1  0  0  0
 21 23  1  0  0  0
 23 51  1  0  0  0
 23 52  1  0  0  0
 24 53  1  0  0  0
 25 54  1  0  0  0
 26 55  1  0  0  0
 27 28  1  0  0  0
 28 29  2  0  0  0
 28 30  1  0  0  0
 30 31  1  0  0  0
 31 32  1  0  0  0
 31 36  1  0  0  0
 32 33  1  0  0  0
 33 34  2  0  0  0
 33 35  1  0  0  0
 35 56  1  0  0  0
 36 37  2  0  0  0
 36 38  1  0  0  0
 38 57  1  0  0  0
 39 40  1  0  0  0
 40 41  2  0  0  0
 40 42  1  0  0  0
 42 43  1  0  0  0
 43 44  1  0  0  0
 43 48  1  0  0  0
 44 45  1  0  0  0
 45 46  2  0  0  0
 45 47  1  0  0  0
 47 58  1  0  0  0
 48 49  2  0  0  0
 48 50  1  0  0  0
 50 59  1  0  0  0
M  END
>  <AUTHOR>
    GENERATED BY OPEN BABEL 2.4.1

>  <CHROM.1>
141.87291297,101.51370559,83.09132183,176.11145932,46.02475425,114.23468431
-177.83693646,-72.33734299,34.51104766,-152.85172289,66.81645747,-133.35528387
-50.93076472,167.26332575,170.80663239,-118.32912439,-157.88354755,-69.11665021
88.36417594,92.28545845,-166.36640837,135.57708512,179.65062566,7.30206614
36.48974281,61.66808715,166.78774630,92.38265976,75.32349590,-116.03795475
15.99809485,33.92525547,-69.97737503,64.31124333,62.65542150,135.70156148
81.65973951,10.28033985,-170.40659327,-0.99585707,-2.80474902,-5.41313967
-0.69332859,0.97968827,1.52570098

>  <COMPND>
    UNNAMED

>  <MASTER>
        0    0    0    0    0    0    0    0  109    0  109    0

>  <Name>
FB1.pdb

>  <RI>
0

>  <Rbt.Current_Directory>
/cluster/tossine/FB1_39T3/p3/1_clust02

>  <Rbt.Executable>
rbdock/0.1.0

>  <Rbt.Library>
librxdock.so/0.1.0

>  <Rbt.Parameter_File>
/cluster/rxdock/data/scripts/dock.prm

>  <Rbt.Receptor>
rx_4.prm

>  <SCORE>
71.5631

>  <SCORE.INTER>
40.3492

>  <SCORE.INTER.CONST>
1

>  <SCORE.INTER.POLAR>
-3.60391

>  <SCORE.INTER.REPUL>
1.77534

>  <SCORE.INTER.ROT>
32

>  <SCORE.INTER.VDW>
6.32585

>  <SCORE.INTER.norm>
0.806985

>  <SCORE.INTRA>
28.497

>  <SCORE.INTRA.DIHEDRAL>
48.131

>  <SCORE.INTRA.DIHEDRAL.0>
47.3121

>  <SCORE.INTRA.POLAR>
0.478077

>  <SCORE.INTRA.POLAR.0>
-1.47808

>  <SCORE.INTRA.REPUL>
0

>  <SCORE.INTRA.REPUL.0>
0

>  <SCORE.INTRA.VDW>
2.80603

>  <SCORE.INTRA.VDW.0>
-2.78316

>  <SCORE.INTRA.norm>
0.56994

>  <SCORE.RESTR>
2.71686

>  <SCORE.RESTR.CAVITY>
2.71686

>  <SCORE.RESTR.norm>
0.0543372

>  <SCORE.SYSTEM>
0

>  <SCORE.SYSTEM.CONST>
0

>  <SCORE.SYSTEM.DIHEDRAL>
0

>  <SCORE.SYSTEM.norm>
0

>  <SCORE.heavy>
50

>  <SCORE.norm>
1.43126

$$$$
