FB1.pdb
  RxDock  10072008443D
librxdock.so/0.1.0
 59 58  0  0  0  0  0  0  0  0999 V2000
   -8.8654   -5.9771  -10.2956 C   0  0  0  0  0  0
   -9.2280   -4.5089  -10.0854 C   0  0  0  0  0  0
   -8.0158   -3.6835   -9.6234 C   0  0  0  0  0  0
   -6.9396   -3.4987  -10.7222 C   0  0  0  0  0  0
   -6.1535   -4.8012  -11.1041 C   0  0  0  0  0  0
   -5.2904   -4.4995  -12.3509 C   0  0  0  0  0  0
   -5.2625   -5.3727   -9.9219 C   0  0  0  0  0  0
   -4.0007   -4.4933   -9.4738 C   0  0  0  0  0  0
   -3.7445   -2.9808   -9.8921 C   0  0  0  0  0  0
   -2.1826   -2.6170  -10.2788 C   0  0  0  0  0  0
   -2.1840   -1.4185  -11.2262 C   0  0  0  0  0  0
   -1.2037   -2.3285   -9.0527 C   0  0  0  0  0  0
    0.3928   -2.5906   -9.0848 C   0  0  0  0  0  0
    1.4263   -1.5504   -8.5316 C   0  0  0  0  0  0
    1.9067   -0.3731   -9.4972 C   0  0  0  0  0  0
    0.9882    0.8240   -9.9638 C   0  0  0  0  0  0
    0.3268    1.7399   -8.9003 C   0  0  0  0  0  0
    1.2644    2.2778   -7.7511 C   0  0  0  0  0  0
    2.1198    3.5048   -8.0907 C   0  0  0  0  0  0
    1.4503    4.6816   -8.8556 C   0  0  0  0  0  0
    2.2957    5.9014   -9.3276 C   0  0  0  0  0  0
    1.5185    7.1191   -9.8080 C   0  0  0  0  0  0
    3.2891    6.2797   -8.3046 N   0  0  0  0  0  0
    0.9397    4.0843  -10.0748 O   0  0  0  0  0  0
    0.4425    2.5947   -6.6225 O   0  0  0  0  0  0
    0.5892   -3.7731   -8.2912 O   0  0  0  0  0  0
   -4.0196   -4.4665   -8.0207 O   0  0  0  0  0  0
   -2.8672   -4.7985   -7.3826 C   0  0  0  0  0  0
   -1.8917   -5.3227   -7.8856 O   0  0  0  0  0  0
   -2.9546   -4.3165   -5.9608 C   0  0  0  0  0  0
   -2.3310   -2.9247   -5.7700 C   0  0  0  0  0  0
   -2.9055   -2.1837   -4.5558 C   0  0  0  0  0  0
   -2.2370   -2.6321   -3.2770 C   0  0  0  0  0  0
   -2.7169   -3.4662   -2.5171 O   0  0  0  0  0  0
   -1.0604   -2.0298   -3.0496 O   0  0  0  0  0  0
   -0.8262   -3.1594   -5.5783 C   0  0  0  0  0  0
   -0.3738   -4.0853   -4.9222 O   0  0  0  0  0  0
   -0.0448   -2.2334   -6.1509 O   0  0  0  0  0  0
   -6.1001   -5.7705   -8.7643 O   0  0  0  0  0  0
   -6.0059   -7.0715   -8.2989 C   0  0  0  0  0  0
   -4.9608   -7.7007   -8.1969 O   0  0  0  0  0  0
   -7.3724   -7.6550   -7.9160 C   0  0  0  0  0  0
   -7.6560   -7.7678   -6.3859 C   0  0  0  0  0  0
   -9.1224   -7.8676   -5.9275 C   0  0  0  0  0  0
   -9.3461   -7.3098   -4.5515 C   0  0  0  0  0  0
   -8.6412   -7.5184   -3.5737 O   0  0  0  0  0  0
  -10.4236   -6.5125   -4.4899 O   0  0  0  0  0  0
   -6.8822   -8.8847   -5.6746 C   0  0  0  0  0  0
   -6.4927   -9.8847   -6.2448 O   0  0  0  0  0  0
   -6.5633   -8.6391   -4.3864 O   0  0  0  0  0  0
    2.8047    6.6644   -7.4948 H   0  0  0  0  0  0
    3.8523    7.0527   -8.6663 H   0  0  0  0  0  0
    1.7399    3.7925  -10.5605 H   0  0  0  0  0  0
   -0.3043    3.1391   -6.9332 H   0  0  0  0  0  0
    1.4596   -4.1436   -8.5139 H   0  0  0  0  0  0
   -0.6164   -2.2835   -2.2178 H   0  0  0  0  0  0
    0.9252   -2.4152   -6.0808 H   0  0  0  0  0  0
  -10.4603   -6.1593   -3.5760 H   0  0  0  0  0  0
   -7.0459   -7.8908   -3.9700 H   0  0  0  0  0  0
  1  2  1  0  0  0
  2  3  1  0  0  0
  3  4  1  0  0  0
  4  5  1  0  0  0
  5  6  1  0  0  0
  5  7  1  0  0  0
  7  8  1  0  0  0
  7 39  1  0  0  0
  8  9  1  0  0  0
  8 27  1  0  0  0
  9 10  1  0  0  0
 10 11  1  0  0  0
 10 12  1  0  0  0
 12 13  1  0  0  0
 13 14  1  0  0  0
 13 26  1  0  0  0
 14 15  1  0  0  0
 15 16  1  0  0  0
 16 17  1  0  0  0
 17 18  1  0  0  0
 18 19  1  0  0  0
 18 25  1  0  0  0
 19 20  1  0  0  0
 20 21  1  0  0  0
 20 24  1  0  0  0
 21 22  1  0  0  0
 21 23  1  0  0  0
 23 51  1  0  0  0
 23 52  1  0  0  0
 24 53  1  0  0  0
 25 54  1  0  0  0
 26 55  1  0  0  0
 27 28  1  0  0  0
 28 29  2  0  0  0
 28 30  1  0  0  0
 30 31  1  0  0  0
 31 32  1  0  0  0
 31 36  1  0  0  0
 32 33  1  0  0  0
 33 34  2  0  0  0
 33 35  1  0  0  0
 35 56  1  0  0  0
 36 37  2  0  0  0
 36 38  1  0  0  0
 38 57  1  0  0  0
 39 40  1  0  0  0
 40 41  2  0  0  0
 40 42  1  0  0  0
 42 43  1  0  0  0
 43 44  1  0  0  0
 43 48  1  0  0  0
 44 45  1  0  0  0
 45 46  2  0  0  0
 45 47  1  0  0  0
 47 58  1  0  0  0
 48 49  2  0  0  0
 48 50  1  0  0  0
 50 59  1  0  0  0
M  END
>  <AUTHOR>
    GENERATED BY OPEN BABEL 2.4.1

>  <CHROM.1>
69.70508464,-69.44495549,171.17404012,-67.71598598,13.55930847,123.69585806
-138.79612196,129.00899791,154.41770920,151.94462280,135.13431402,-84.99099022
161.28685153,69.77697235,57.65914983,47.80639804,81.72303688,44.17313549
-48.97096783,-175.05346908,-167.90975013,-64.93083695,-68.74747528,-12.86643264
-93.90166221,155.76452429,81.82270415,-39.74366512,-98.06196322,178.48583485
-176.08928458,40.51575926,-105.30798380,159.15985351,-151.68101264,-26.24575854
-45.11653682,-176.93611104,14.99327950,-3.13071046,-2.97580100,-7.68919774
2.67533579,0.74550355,2.03315758

>  <COMPND>
    UNNAMED

>  <MASTER>
        0    0    0    0    0    0    0    0  109    0  109    0

>  <Name>
FB1.pdb

>  <RI>
0

>  <Rbt.Current_Directory>
/cluster/tossine/FB1_39T3/p3/1_clust02

>  <Rbt.Executable>
rbdock/0.1.0

>  <Rbt.Library>
librxdock.so/0.1.0

>  <Rbt.Parameter_File>
/cluster/rxdock/data/scripts/dock.prm

>  <Rbt.Receptor>
rx_2.prm

>  <SCORE>
10.3582

>  <SCORE.INTER>
-5.66313

>  <SCORE.INTER.CONST>
1

>  <SCORE.INTER.POLAR>
-4.35466

>  <SCORE.INTER.REPUL>
0.353993

>  <SCORE.INTER.ROT>
32

>  <SCORE.INTER.VDW>
-30.0273

>  <SCORE.INTER.norm>
-0.113263

>  <SCORE.INTRA>
14.149

>  <SCORE.INTRA.DIHEDRAL>
28.9498

>  <SCORE.INTRA.DIHEDRAL.0>
47.3121

>  <SCORE.INTRA.POLAR>
1.00499

>  <SCORE.INTRA.POLAR.0>
-1.47808

>  <SCORE.INTRA.REPUL>
0.00678644

>  <SCORE.INTRA.REPUL.0>
0

>  <SCORE.INTRA.VDW>
-3.77679

>  <SCORE.INTRA.VDW.0>
-2.78316

>  <SCORE.INTRA.norm>
0.28298

>  <SCORE.RESTR>
1.87237

>  <SCORE.RESTR.CAVITY>
1.87237

>  <SCORE.RESTR.norm>
0.0374474

>  <SCORE.SYSTEM>
0

>  <SCORE.SYSTEM.CONST>
0

>  <SCORE.SYSTEM.DIHEDRAL>
0

>  <SCORE.SYSTEM.norm>
0

>  <SCORE.heavy>
50

>  <SCORE.norm>
0.207165

$$$$
