FB1.pdb
  RxDock  10072009523D
librxdock.so/0.1.0
 59 58  0  0  0  0  0  0  0  0999 V2000
   -4.6121   -1.0927  -11.2818 C   0  0  0  0  0  0
   -3.1520   -1.2339  -10.8580 C   0  0  0  0  0  0
   -3.0167   -1.9839   -9.5225 C   0  0  0  0  0  0
   -1.5587   -2.0667   -9.0057 C   0  0  0  0  0  0
   -1.0736   -3.5082   -8.6222 C   0  0  0  0  0  0
    0.3853   -3.4118   -8.1191 C   0  0  0  0  0  0
   -1.9980   -4.2227   -7.5486 C   0  0  0  0  0  0
   -2.2386   -3.4477   -6.1674 C   0  0  0  0  0  0
   -2.6167   -4.1369   -4.7853 C   0  0  0  0  0  0
   -2.8939   -3.0948   -3.5368 C   0  0  0  0  0  0
   -4.1874   -2.3325   -3.8194 C   0  0  0  0  0  0
   -2.9627   -3.7440   -2.0812 C   0  0  0  0  0  0
   -3.0334   -5.3359   -1.7998 C   0  0  0  0  0  0
   -3.5634   -5.9276   -0.4489 C   0  0  0  0  0  0
   -3.6664   -7.5144   -0.3056 C   0  0  0  0  0  0
   -3.8573   -8.2722    1.0669 C   0  0  0  0  0  0
   -3.2789   -7.6553    2.3678 C   0  0  0  0  0  0
   -4.1664   -6.5679    3.0883 C   0  0  0  0  0  0
   -5.3995   -7.0860    3.8391 C   0  0  0  0  0  0
   -6.4028   -6.0467    4.4148 C   0  0  0  0  0  0
   -6.0906   -4.5225    4.3450 C   0  0  0  0  0  0
   -7.2829   -3.5814    4.4455 C   0  0  0  0  0  0
   -5.0451   -4.1551    5.3189 N   0  0  0  0  0  0
   -7.6061   -6.2201    3.6239 O   0  0  0  0  0  0
   -3.3340   -5.8610    4.0141 O   0  0  0  0  0  0
   -3.9196   -5.8504   -2.8081 O   0  0  0  0  0  0
   -1.0078   -2.7279   -5.8857 O   0  0  0  0  0  0
   -1.1237   -1.4189   -5.5416 C   0  0  0  0  0  0
   -2.1408   -0.7529   -5.5776 O   0  0  0  0  0  0
    0.2009   -0.9480   -5.0074 C   0  0  0  0  0  0
    0.9369   -0.0209   -5.9878 C   0  0  0  0  0  0
    0.0553    1.1338   -6.4806 C   0  0  0  0  0  0
    0.7528    1.9303   -7.5588 C   0  0  0  0  0  0
    1.3446    1.4199   -8.5037 O   0  0  0  0  0  0
    0.6622    3.2573   -7.3858 O   0  0  0  0  0  0
    2.1452    0.5318   -5.2193 C   0  0  0  0  0  0
    3.3001    0.2481   -5.4990 O   0  0  0  0  0  0
    1.8280    1.3161   -4.1800 O   0  0  0  0  0  0
   -3.2713   -4.6790   -8.1572 O   0  0  0  0  0  0
   -3.8473   -5.8460   -7.6836 C   0  0  0  0  0  0
   -3.4592   -6.4654   -6.7017 O   0  0  0  0  0  0
   -5.0458   -6.2916   -8.5318 C   0  0  0  0  0  0
   -4.8617   -7.6284   -9.3150 C   0  0  0  0  0  0
   -5.5085   -8.9004   -8.7370 C   0  0  0  0  0  0
   -5.2779   -9.0572   -7.2616 C   0  0  0  0  0  0
   -4.2524   -9.4728   -6.7399 O   0  0  0  0  0  0
   -6.3347   -8.6669   -6.5327 O   0  0  0  0  0  0
   -5.2483   -7.5573  -10.7975 C   0  0  0  0  0  0
   -5.3479   -8.5425  -11.5019 O   0  0  0  0  0  0
   -5.5786   -6.3302  -11.2519 O   0  0  0  0  0  0
   -5.4102   -4.2764    6.2626 H   0  0  0  0  0  0
   -4.8586   -3.1532    5.2355 H   0  0  0  0  0  0
   -7.3146   -6.0827    2.6979 H   0  0  0  0  0  0
   -3.9096   -5.3435    4.6069 H   0  0  0  0  0  0
   -4.0720   -6.7921   -2.6224 H   0  0  0  0  0  0
    1.3406    3.6487   -6.8027 H   0  0  0  0  0  0
    2.5899    1.5462   -3.5924 H   0  0  0  0  0  0
   -6.6577   -7.8311   -6.9307 H   0  0  0  0  0  0
   -5.8912   -6.2977  -12.1833 H   0  0  0  0  0  0
  1  2  1  0  0  0
  2  3  1  0  0  0
  3  4  1  0  0  0
  4  5  1  0  0  0
  5  6  1  0  0  0
  5  7  1  0  0  0
  7  8  1  0  0  0
  7 39  1  0  0  0
  8  9  1  0  0  0
  8 27  1  0  0  0
  9 10  1  0  0  0
 10 11  1  0  0  0
 10 12  1  0  0  0
 12 13  1  0  0  0
 13 14  1  0  0  0
 13 26  1  0  0  0
 14 15  1  0  0  0
 15 16  1  0  0  0
 16 17  1  0  0  0
 17 18  1  0  0  0
 18 19  1  0  0  0
 18 25  1  0  0  0
 19 20  1  0  0  0
 20 21  1  0  0  0
 20 24  1  0  0  0
 21 22  1  0  0  0
 21 23  1  0  0  0
 23 51  1  0  0  0
 23 52  1  0  0  0
 24 53  1  0  0  0
 25 54  1  0  0  0
 26 55  1  0  0  0
 27 28  1  0  0  0
 28 29  2  0  0  0
 28 30  1  0  0  0
 30 31  1  0  0  0
 31 32  1  0  0  0
 31 36  1  0  0  0
 32 33  1  0  0  0
 33 34  2  0  0  0
 33 35  1  0  0  0
 35 56  1  0  0  0
 36 37  2  0  0  0
 36 38  1  0  0  0
 38 57  1  0  0  0
 39 40  1  0  0  0
 40 41  2  0  0  0
 40 42  1  0  0  0
 42 43  1  0  0  0
 43 44  1  0  0  0
 43 48  1  0  0  0
 44 45  1  0  0  0
 45 46  2  0  0  0
 45 47  1  0  0  0
 47 58  1  0  0  0
 48 49  2  0  0  0
 48 50  1  0  0  0
 50 59  1  0  0  0
M  END
>  <AUTHOR>
    GENERATED BY OPEN BABEL 2.4.1

>  <CHROM.1>
-176.09661821,-128.67971994,-179.53139087,-55.66591810,-155.07063477,146.17195937
-176.57791861,131.82526026,68.81337967,-10.91904430,-159.37503367,176.67607131
-173.92457627,165.38679629,-30.27605464,83.63528533,73.95490409,-172.50542097
-166.65860536,-5.64103323,158.33373257,-56.87168807,-66.87640182,-8.05032404
107.08233435,51.39369904,-173.46429316,112.52434329,45.70135980,85.56683249
169.98917374,7.92545261,113.78827565,101.35457683,-45.53661709,-169.21418873
-79.26998512,-42.92345066,-175.56895405,-2.96596086,-4.07381787,-4.57927580
1.06426589,-0.95509802,-1.66975007

>  <COMPND>
    UNNAMED

>  <MASTER>
        0    0    0    0    0    0    0    0  109    0  109    0

>  <Name>
FB1.pdb

>  <RI>
0

>  <Rbt.Current_Directory>
/cluster/tossine/FB1_39T3/p3/1_clust02

>  <Rbt.Executable>
rbdock/0.1.0

>  <Rbt.Library>
librxdock.so/0.1.0

>  <Rbt.Parameter_File>
/cluster/rxdock/data/scripts/dock.prm

>  <Rbt.Receptor>
rx_4.prm

>  <SCORE>
97.9793

>  <SCORE.INTER>
68.109

>  <SCORE.INTER.CONST>
1

>  <SCORE.INTER.POLAR>
-2.58688

>  <SCORE.INTER.REPUL>
1.11925

>  <SCORE.INTER.ROT>
32

>  <SCORE.INTER.VDW>
33.9081

>  <SCORE.INTER.norm>
1.36218

>  <SCORE.INTRA>
28.895

>  <SCORE.INTRA.DIHEDRAL>
50.2336

>  <SCORE.INTRA.DIHEDRAL.0>
47.3121

>  <SCORE.INTRA.POLAR>
0.478077

>  <SCORE.INTRA.POLAR.0>
-1.47808

>  <SCORE.INTRA.REPUL>
0.115908

>  <SCORE.INTRA.REPUL.0>
0

>  <SCORE.INTRA.VDW>
1.57317

>  <SCORE.INTRA.VDW.0>
-2.78316

>  <SCORE.INTRA.norm>
0.5779

>  <SCORE.RESTR>
0.975372

>  <SCORE.RESTR.CAVITY>
0.975372

>  <SCORE.RESTR.norm>
0.0195074

>  <SCORE.SYSTEM>
0

>  <SCORE.SYSTEM.CONST>
0

>  <SCORE.SYSTEM.DIHEDRAL>
0

>  <SCORE.SYSTEM.norm>
0

>  <SCORE.heavy>
50

>  <SCORE.norm>
1.95959

$$$$
