FB1.pdb
  RxDock  10072007253D
librxdock.so/0.1.0
 59 58  0  0  0  0  0  0  0  0999 V2000
   -2.0909   -2.6696   -3.2686 C   0  0  0  0  0  0
   -0.8736   -1.8027   -3.5818 C   0  0  0  0  0  0
    0.0383   -2.4595   -4.6312 C   0  0  0  0  0  0
   -0.2312   -1.9708   -6.0762 C   0  0  0  0  0  0
   -1.6562   -2.3133   -6.6355 C   0  0  0  0  0  0
   -2.6585   -1.2762   -6.0784 C   0  0  0  0  0  0
   -1.7182   -2.3681   -8.2201 C   0  0  0  0  0  0
   -3.1726   -2.4433   -8.8872 C   0  0  0  0  0  0
   -3.7579   -1.3922   -9.9269 C   0  0  0  0  0  0
   -4.1618   -2.0159  -11.3998 C   0  0  0  0  0  0
   -5.2726   -3.0461  -11.2022 C   0  0  0  0  0  0
   -4.6020   -0.9615  -12.5130 C   0  0  0  0  0  0
   -4.4250    0.6403  -12.3664 C   0  0  0  0  0  0
   -3.0350    1.3104  -12.0924 C   0  0  0  0  0  0
   -2.8837    2.8772  -12.3599 C   0  0  0  0  0  0
   -1.5065    3.6052  -12.6205 C   0  0  0  0  0  0
   -0.5540    3.8886  -11.4289 C   0  0  0  0  0  0
   -1.0544    4.9344  -10.3588 C   0  0  0  0  0  0
   -0.4776    6.3510  -10.4719 C   0  0  0  0  0  0
    0.9994    6.5821  -10.0437 C   0  0  0  0  0  0
    1.3563    6.8678   -8.5550 C   0  0  0  0  0  0
    2.8258    7.1191   -8.2467 C   0  0  0  0  0  0
    0.5111    7.9470   -8.0097 N   0  0  0  0  0  0
    1.6727    5.3366  -10.3589 O   0  0  0  0  0  0
   -2.4807    5.0152  -10.4536 O   0  0  0  0  0  0
   -4.8580    1.1769  -13.6278 O   0  0  0  0  0  0
   -3.2327   -3.7149   -9.5887 O   0  0  0  0  0  0
   -3.5202   -4.8157   -8.8466 C   0  0  0  0  0  0
   -3.6768   -4.8498   -7.6409 O   0  0  0  0  0  0
   -3.7154   -5.9800   -9.7781 C   0  0  0  0  0  0
   -5.1031   -6.6250   -9.6342 C   0  0  0  0  0  0
   -5.6886   -7.0686  -10.9809 C   0  0  0  0  0  0
   -4.6905   -7.8877  -11.7659 C   0  0  0  0  0  0
   -3.6795   -8.3779  -11.2747 O   0  0  0  0  0  0
   -5.0164   -8.0314  -13.0590 O   0  0  0  0  0  0
   -4.9098   -7.8420   -8.7190 C   0  0  0  0  0  0
   -5.0745   -8.9924   -9.0955 O   0  0  0  0  0  0
   -4.5919   -7.5372   -7.4533 O   0  0  0  0  0  0
   -0.8851   -1.3009   -8.8257 O   0  0  0  0  0  0
   -0.5983   -1.3765  -10.1786 C   0  0  0  0  0  0
   -1.1831   -2.0991  -10.9750 O   0  0  0  0  0  0
    0.5496   -0.4431  -10.5851 C   0  0  0  0  0  0
    1.5688   -0.0916   -9.4571 C   0  0  0  0  0  0
    2.9219    0.5168   -9.8687 C   0  0  0  0  0  0
    2.7864    1.8651  -10.5153 C   0  0  0  0  0  0
    1.9201    2.6921  -10.2662 O   0  0  0  0  0  0
    3.7519    2.1013  -11.4166 O   0  0  0  0  0  0
    1.0003    0.7857   -8.3349 C   0  0  0  0  0  0
   -0.0278    1.4230   -8.4514 O   0  0  0  0  0  0
    1.6611    0.7235   -7.1598 O   0  0  0  0  0  0
    0.5095    8.7312   -8.6605 H   0  0  0  0  0  0
    0.9515    8.3098   -7.1612 H   0  0  0  0  0  0
    1.3301    4.6972   -9.6992 H   0  0  0  0  0  0
   -2.8509    4.1442  -10.2194 H   0  0  0  0  0  0
   -4.1406    1.0496  -14.2710 H   0  0  0  0  0  0
   -5.6753   -7.3943  -13.3958 H   0  0  0  0  0  0
   -4.8329   -6.6174   -7.1801 H   0  0  0  0  0  0
    3.6125    3.0144  -11.7454 H   0  0  0  0  0  0
    1.2679    0.1227   -6.4885 H   0  0  0  0  0  0
  1  2  1  0  0  0
  2  3  1  0  0  0
  3  4  1  0  0  0
  4  5  1  0  0  0
  5  6  1  0  0  0
  5  7  1  0  0  0
  7  8  1  0  0  0
  7 39  1  0  0  0
  8  9  1  0  0  0
  8 27  1  0  0  0
  9 10  1  0  0  0
 10 11  1  0  0  0
 10 12  1  0  0  0
 12 13  1  0  0  0
 13 14  1  0  0  0
 13 26  1  0  0  0
 14 15  1  0  0  0
 15 16  1  0  0  0
 16 17  1  0  0  0
 17 18  1  0  0  0
 18 19  1  0  0  0
 18 25  1  0  0  0
 19 20  1  0  0  0
 20 21  1  0  0  0
 20 24  1  0  0  0
 21 22  1  0  0  0
 21 23  1  0  0  0
 23 51  1  0  0  0
 23 52  1  0  0  0
 24 53  1  0  0  0
 25 54  1  0  0  0
 26 55  1  0  0  0
 27 28  1  0  0  0
 28 29  2  0  0  0
 28 30  1  0  0  0
 30 31  1  0  0  0
 31 32  1  0  0  0
 31 36  1  0  0  0
 32 33  1  0  0  0
 33 34  2  0  0  0
 33 35  1  0  0  0
 35 56  1  0  0  0
 36 37  2  0  0  0
 36 38  1  0  0  0
 38 57  1  0  0  0
 39 40  1  0  0  0
 40 41  2  0  0  0
 40 42  1  0  0  0
 42 43  1  0  0  0
 43 44  1  0  0  0
 43 48  1  0  0  0
 44 45  1  0  0  0
 45 46  2  0  0  0
 45 47  1  0  0  0
 47 58  1  0  0  0
 48 49  2  0  0  0
 48 50  1  0  0  0
 50 59  1  0  0  0
M  END
>  <AUTHOR>
    GENERATED BY OPEN BABEL 2.4.1

>  <CHROM.1>
95.67017297,-63.55242507,80.36385900,-169.11507326,121.76739983,166.47994423
119.78247728,81.64831594,62.44382200,11.17234616,56.59081526,163.41964110
-78.17023804,-157.98196781,-76.45080775,-67.06617349,-100.40611534,-73.36021240
63.37363006,-85.77979606,-178.31154323,-70.83730674,-48.36778007,-3.34723046
-121.74045380,141.78240828,49.79636279,-114.80919619,15.06451533,17.72590803
20.93869381,15.17714548,26.05999201,164.08530337,64.36584100,-17.10845783
31.50103638,-176.88885893,-98.10034533,-1.66461230,-0.73876148,-9.55120928
-2.33620378,-0.92093023,-0.66711851

>  <COMPND>
    UNNAMED

>  <MASTER>
        0    0    0    0    0    0    0    0  109    0  109    0

>  <Name>
FB1.pdb

>  <RI>
0

>  <Rbt.Current_Directory>
/cluster/tossine/FB1_39T3/p3/1_clust02

>  <Rbt.Executable>
rbdock/0.1.0

>  <Rbt.Library>
librxdock.so/0.1.0

>  <Rbt.Parameter_File>
/cluster/rxdock/data/scripts/dock.prm

>  <Rbt.Receptor>
rx_0.prm

>  <SCORE>
38.3346

>  <SCORE.INTER>
7.04441

>  <SCORE.INTER.CONST>
1

>  <SCORE.INTER.POLAR>
-2.30368

>  <SCORE.INTER.REPUL>
1.08559

>  <SCORE.INTER.ROT>
32

>  <SCORE.INTER.VDW>
-27.951

>  <SCORE.INTER.norm>
0.140888

>  <SCORE.INTRA>
28.5064

>  <SCORE.INTRA.DIHEDRAL>
39.0245

>  <SCORE.INTRA.DIHEDRAL.0>
47.3121

>  <SCORE.INTRA.POLAR>
1.19011

>  <SCORE.INTRA.POLAR.0>
-1.47808

>  <SCORE.INTRA.REPUL>
0

>  <SCORE.INTRA.REPUL.0>
0

>  <SCORE.INTRA.VDW>
4.94776

>  <SCORE.INTRA.VDW.0>
-2.78316

>  <SCORE.INTRA.norm>
0.570127

>  <SCORE.RESTR>
2.78383

>  <SCORE.RESTR.CAVITY>
2.78383

>  <SCORE.RESTR.norm>
0.0556766

>  <SCORE.SYSTEM>
0

>  <SCORE.SYSTEM.CONST>
0

>  <SCORE.SYSTEM.DIHEDRAL>
0

>  <SCORE.SYSTEM.norm>
0

>  <SCORE.heavy>
50

>  <SCORE.norm>
0.766692

$$$$
