FB1.pdb
  RxDock  10072009503D
librxdock.so/0.1.0
 59 58  0  0  0  0  0  0  0  0999 V2000
    3.2358    0.7697  -11.3046 C   0  0  0  0  0  0
    3.9994    0.0761  -10.1789 C   0  0  0  0  0  0
    3.2997   -1.2169   -9.7285 C   0  0  0  0  0  0
    1.7825   -1.0404   -9.4706 C   0  0  0  0  0  0
    1.2875   -1.5386   -8.0680 C   0  0  0  0  0  0
    2.4822   -1.4939   -7.0876 C   0  0  0  0  0  0
    0.0569   -0.7129   -7.5009 C   0  0  0  0  0  0
   -1.3859   -1.4024   -7.5974 C   0  0  0  0  0  0
   -2.2462   -1.5420   -8.9273 C   0  0  0  0  0  0
   -1.4134   -1.2900  -10.3288 C   0  0  0  0  0  0
   -0.5113   -2.4971  -10.5807 C   0  0  0  0  0  0
   -2.2935   -0.9998  -11.6272 C   0  0  0  0  0  0
   -3.3331   -2.0578  -12.2741 C   0  0  0  0  0  0
   -4.5173   -2.6790  -11.4569 C   0  0  0  0  0  0
   -5.1578   -4.0474  -11.9728 C   0  0  0  0  0  0
   -6.0401   -5.0073  -11.0813 C   0  0  0  0  0  0
   -5.5848   -5.3417   -9.6362 C   0  0  0  0  0  0
   -4.2174   -6.1147   -9.4883 C   0  0  0  0  0  0
   -3.9120   -7.1666  -10.5619 C   0  0  0  0  0  0
   -4.9775   -8.2637  -10.8434 C   0  0  0  0  0  0
   -4.6761   -9.4226  -11.8392 C   0  0  0  0  0  0
   -5.7566  -10.4842  -11.9903 C   0  0  0  0  0  0
   -4.2697   -8.8928  -13.1547 N   0  0  0  0  0  0
   -5.1837   -8.9130   -9.5629 O   0  0  0  0  0  0
   -3.1615   -5.1478   -9.4856 O   0  0  0  0  0  0
   -3.9566   -1.3479  -13.3575 O   0  0  0  0  0  0
   -1.2147   -2.7694   -7.1344 O   0  0  0  0  0  0
   -2.3429   -3.4684   -6.8448 C   0  0  0  0  0  0
   -3.3037   -3.6184   -7.5755 O   0  0  0  0  0  0
   -2.1683   -4.1181   -5.4999 C   0  0  0  0  0  0
   -2.4826   -3.1627   -4.3376 C   0  0  0  0  0  0
   -2.5032   -3.8752   -2.9791 C   0  0  0  0  0  0
   -3.2417   -3.0569   -1.9456 C   0  0  0  0  0  0
   -4.4341   -3.1962   -1.6956 O   0  0  0  0  0  0
   -2.4658   -2.1586   -1.3212 O   0  0  0  0  0  0
   -1.3769   -2.0982   -4.3557 C   0  0  0  0  0  0
   -1.6013   -0.9017   -4.2536 O   0  0  0  0  0  0
   -0.1428   -2.5859   -4.5431 O   0  0  0  0  0  0
    0.3374   -0.2029   -6.1367 O   0  0  0  0  0  0
    0.9017    1.0551   -6.0065 C   0  0  0  0  0  0
    2.0428    1.2697   -5.6187 O   0  0  0  0  0  0
   -0.0685    2.1745   -6.4066 C   0  0  0  0  0  0
    0.1495    2.7846   -7.8260 C   0  0  0  0  0  0
    1.0444    4.0315   -7.9478 C   0  0  0  0  0  0
    0.6255    4.9477   -9.0612 C   0  0  0  0  0  0
    0.3688    6.1384   -8.9471 O   0  0  0  0  0  0
    0.5730    4.3230  -10.2475 O   0  0  0  0  0  0
    0.6236    1.7818   -8.8852 C   0  0  0  0  0  0
   -0.1247    1.2785   -9.6997 O   0  0  0  0  0  0
    1.9558    1.5698   -8.9272 O   0  0  0  0  0  0
   -3.4447   -8.3061  -13.0382 H   0  0  0  0  0  0
   -4.9983   -8.2590  -13.4908 H   0  0  0  0  0  0
   -4.3795   -9.4581   -9.4304 H   0  0  0  0  0  0
   -3.1530   -4.7042  -10.3537 H   0  0  0  0  0  0
   -4.5232   -1.9729  -13.8401 H   0  0  0  0  0  0
   -1.5047   -2.2848   -1.4389 H   0  0  0  0  0  0
    0.0787   -3.3686   -3.9800 H   0  0  0  0  0  0
    0.3766    5.0101  -10.9188 H   0  0  0  0  0  0
    2.4940    2.1685   -8.3632 H   0  0  0  0  0  0
  1  2  1  0  0  0
  2  3  1  0  0  0
  3  4  1  0  0  0
  4  5  1  0  0  0
  5  6  1  0  0  0
  5  7  1  0  0  0
  7  8  1  0  0  0
  7 39  1  0  0  0
  8  9  1  0  0  0
  8 27  1  0  0  0
  9 10  1  0  0  0
 10 11  1  0  0  0
 10 12  1  0  0  0
 12 13  1  0  0  0
 13 14  1  0  0  0
 13 26  1  0  0  0
 14 15  1  0  0  0
 15 16  1  0  0  0
 16 17  1  0  0  0
 17 18  1  0  0  0
 18 19  1  0  0  0
 18 25  1  0  0  0
 19 20  1  0  0  0
 20 21  1  0  0  0
 20 24  1  0  0  0
 21 22  1  0  0  0
 21 23  1  0  0  0
 23 51  1  0  0  0
 23 52  1  0  0  0
 24 53  1  0  0  0
 25 54  1  0  0  0
 26 55  1  0  0  0
 27 28  1  0  0  0
 28 29  2  0  0  0
 28 30  1  0  0  0
 30 31  1  0  0  0
 31 32  1  0  0  0
 31 36  1  0  0  0
 32 33  1  0  0  0
 33 34  2  0  0  0
 33 35  1  0  0  0
 35 56  1  0  0  0
 36 37  2  0  0  0
 36 38  1  0  0  0
 38 57  1  0  0  0
 39 40  1  0  0  0
 40 41  2  0  0  0
 40 42  1  0  0  0
 42 43  1  0  0  0
 43 44  1  0  0  0
 43 48  1  0  0  0
 44 45  1  0  0  0
 45 46  2  0  0  0
 45 47  1  0  0  0
 47 58  1  0  0  0
 48 49  2  0  0  0
 48 50  1  0  0  0
 50 59  1  0  0  0
M  END
>  <AUTHOR>
    GENERATED BY OPEN BABEL 2.4.1

>  <CHROM.1>
-48.32057426,-127.34326493,24.96831569,103.16976341,-75.24525972,91.28734063
15.63792136,165.90587399,73.29907533,-63.48723407,57.02809962,-158.83366232
174.01183439,161.56586715,-44.71056227,-62.95872858,-36.59401174,-52.98532551
-64.07640203,-175.08229392,176.93809165,-74.00346161,58.47347689,52.53902145
82.75867382,171.68981026,-161.20786733,133.99052915,93.45293083,-14.38400027
-47.02055013,-110.83009644,-101.17088777,-92.88378006,-148.20309736,100.25503467
125.20698339,-174.77673407,-8.09798888,-1.50323002,-2.03590674,-8.35145099
-0.23580704,-1.00046740,-1.56621208

>  <COMPND>
    UNNAMED

>  <MASTER>
        0    0    0    0    0    0    0    0  109    0  109    0

>  <Name>
FB1.pdb

>  <RI>
0

>  <Rbt.Current_Directory>
/cluster/tossine/FB1_39T3/p3/1_clust02

>  <Rbt.Executable>
rbdock/0.1.0

>  <Rbt.Library>
librxdock.so/0.1.0

>  <Rbt.Parameter_File>
/cluster/rxdock/data/scripts/dock.prm

>  <Rbt.Receptor>
rx_4.prm

>  <SCORE>
49.2649

>  <SCORE.INTER>
7.21191

>  <SCORE.INTER.CONST>
1

>  <SCORE.INTER.POLAR>
-2.70588

>  <SCORE.INTER.REPUL>
1.42234

>  <SCORE.INTER.ROT>
32

>  <SCORE.INTER.VDW>
-28.0998

>  <SCORE.INTER.norm>
0.144238

>  <SCORE.INTRA>
39.6041

>  <SCORE.INTRA.DIHEDRAL>
52.5066

>  <SCORE.INTRA.DIHEDRAL.0>
47.3121

>  <SCORE.INTRA.POLAR>
1.47808

>  <SCORE.INTRA.POLAR.0>
-1.47808

>  <SCORE.INTRA.REPUL>
0.311342

>  <SCORE.INTRA.REPUL.0>
0

>  <SCORE.INTRA.VDW>
6.76861

>  <SCORE.INTRA.VDW.0>
-2.78316

>  <SCORE.INTRA.norm>
0.792081

>  <SCORE.RESTR>
2.44888

>  <SCORE.RESTR.CAVITY>
2.44888

>  <SCORE.RESTR.norm>
0.0489775

>  <SCORE.SYSTEM>
0

>  <SCORE.SYSTEM.CONST>
0

>  <SCORE.SYSTEM.DIHEDRAL>
0

>  <SCORE.SYSTEM.norm>
0

>  <SCORE.heavy>
50

>  <SCORE.norm>
0.985297

$$$$
