FB1.pdb
  RxDock  10072009103D
librxdock.so/0.1.0
 59 58  0  0  0  0  0  0  0  0999 V2000
    3.1423    2.9621   -3.9997 C   0  0  0  0  0  0
    3.9919    1.7942   -4.4953 C   0  0  0  0  0  0
    3.2479    0.4546   -4.3683 C   0  0  0  0  0  0
    2.1263    0.2690   -5.4205 C   0  0  0  0  0  0
    1.4028   -1.1221   -5.3779 C   0  0  0  0  0  0
    0.5358   -1.1794   -4.0989 C   0  0  0  0  0  0
    0.5303   -1.4219   -6.6689 C   0  0  0  0  0  0
   -0.0995   -0.1598   -7.4283 C   0  0  0  0  0  0
    0.4823    0.4928   -8.7563 C   0  0  0  0  0  0
    2.0254    1.0637   -8.6372 C   0  0  0  0  0  0
    2.6311    1.1209  -10.0386 C   0  0  0  0  0  0
    2.1981    2.4791   -7.9217 C   0  0  0  0  0  0
    2.6952    3.8222   -8.6750 C   0  0  0  0  0  0
    1.8253    4.5497   -9.7566 C   0  0  0  0  0  0
    0.2829    4.1556   -9.8785 C   0  0  0  0  0  0
   -0.6935    4.7186  -10.9850 C   0  0  0  0  0  0
   -2.1179    5.1840  -10.5827 C   0  0  0  0  0  0
   -2.2146    6.5203   -9.7496 C   0  0  0  0  0  0
   -1.1225    7.5648  -10.0117 C   0  0  0  0  0  0
    0.3065    7.2912   -9.4627 C   0  0  0  0  0  0
    1.5333    8.0666  -10.0278 C   0  0  0  0  0  0
    2.9015    7.6316   -9.5217 C   0  0  0  0  0  0
    1.5018    8.0971  -11.5025 N   0  0  0  0  0  0
    0.2399    7.6632   -8.0624 O   0  0  0  0  0  0
   -3.4882    7.1168  -10.0176 O   0  0  0  0  0  0
    2.8757    4.7888   -7.6264 O   0  0  0  0  0  0
   -1.4603   -0.5329   -7.7770 O   0  0  0  0  0  0
   -2.1169   -1.3493   -6.9123 C   0  0  0  0  0  0
   -2.4105   -1.0904   -5.7607 O   0  0  0  0  0  0
   -2.5156   -2.5992   -7.6473 C   0  0  0  0  0  0
   -3.0545   -3.6899   -6.7080 C   0  0  0  0  0  0
   -3.7589   -4.8232   -7.4649 C   0  0  0  0  0  0
   -3.0863   -5.0935   -8.7908 C   0  0  0  0  0  0
   -2.0743   -5.7754   -8.9115 O   0  0  0  0  0  0
   -3.7047   -4.5155   -9.8312 O   0  0  0  0  0  0
   -1.8346   -4.2394   -5.9559 C   0  0  0  0  0  0
   -1.4375   -5.3883   -6.0782 O   0  0  0  0  0  0
   -1.2661   -3.3672   -5.1121 O   0  0  0  0  0  0
    1.2453   -2.3287   -7.5996 O   0  0  0  0  0  0
    2.3221   -1.8270   -8.3115 C   0  0  0  0  0  0
    3.3263   -1.3428   -7.8059 O   0  0  0  0  0  0
    2.1241   -1.9429   -9.8286 C   0  0  0  0  0  0
    0.6608   -2.2048  -10.3027 C   0  0  0  0  0  0
    0.0348   -1.2124  -11.2995 C   0  0  0  0  0  0
   -1.4518   -1.3752  -11.4340 C   0  0  0  0  0  0
   -2.0217   -2.0557  -12.2758 O   0  0  0  0  0  0
   -2.1295   -0.6939  -10.4976 O   0  0  0  0  0  0
    0.4108   -3.6154  -10.8505 C   0  0  0  0  0  0
    0.9226   -4.0269  -11.8730 O   0  0  0  0  0  0
   -0.3363   -4.4183  -10.0642 O   0  0  0  0  0  0
    1.1101    7.2215  -11.8464 H   0  0  0  0  0  0
    2.4635    8.1098  -11.8495 H   0  0  0  0  0  0
   -0.3075    6.9638   -7.6471 H   0  0  0  0  0  0
   -3.4447    8.0558   -9.7591 H   0  0  0  0  0  0
    3.2788    5.5829   -8.0155 H   0  0  0  0  0  0
   -4.5232   -4.0302   -9.6122 H   0  0  0  0  0  0
   -0.5990   -3.7649   -4.4992 H   0  0  0  0  0  0
   -1.5712   -0.6923   -9.6916 H   0  0  0  0  0  0
   -0.4950   -5.3218  -10.4173 H   0  0  0  0  0  0
  1  2  1  0  0  0
  2  3  1  0  0  0
  3  4  1  0  0  0
  4  5  1  0  0  0
  5  6  1  0  0  0
  5  7  1  0  0  0
  7  8  1  0  0  0
  7 39  1  0  0  0
  8  9  1  0  0  0
  8 27  1  0  0  0
  9 10  1  0  0  0
 10 11  1  0  0  0
 10 12  1  0  0  0
 12 13  1  0  0  0
 13 14  1  0  0  0
 13 26  1  0  0  0
 14 15  1  0  0  0
 15 16  1  0  0  0
 16 17  1  0  0  0
 17 18  1  0  0  0
 18 19  1  0  0  0
 18 25  1  0  0  0
 19 20  1  0  0  0
 20 21  1  0  0  0
 20 24  1  0  0  0
 21 22  1  0  0  0
 21 23  1  0  0  0
 23 51  1  0  0  0
 23 52  1  0  0  0
 24 53  1  0  0  0
 25 54  1  0  0  0
 26 55  1  0  0  0
 27 28  1  0  0  0
 28 29  2  0  0  0
 28 30  1  0  0  0
 30 31  1  0  0  0
 31 32  1  0  0  0
 31 36  1  0  0  0
 32 33  1  0  0  0
 33 34  2  0  0  0
 33 35  1  0  0  0
 35 56  1  0  0  0
 36 37  2  0  0  0
 36 38  1  0  0  0
 38 57  1  0  0  0
 39 40  1  0  0  0
 40 41  2  0  0  0
 40 42  1  0  0  0
 42 43  1  0  0  0
 43 44  1  0  0  0
 43 48  1  0  0  0
 44 45  1  0  0  0
 45 46  2  0  0  0
 45 47  1  0  0  0
 47 58  1  0  0  0
 48 49  2  0  0  0
 48 50  1  0  0  0
 50 59  1  0  0  0
M  END
>  <AUTHOR>
    GENERATED BY OPEN BABEL 2.4.1

>  <CHROM.1>
73.74793020,176.45400641,70.74828658,-29.55846788,101.07783768,-72.28310070
-59.73266276,33.64245241,157.24484709,-113.28764027,68.29894281,14.20723003
173.18083200,-175.23946646,-135.80617457,71.22201579,30.37794957,-73.14183127
-161.45738157,161.95295600,-174.26074788,71.19663071,-34.80499853,63.15835903
170.33204725,166.63407758,35.20388269,-115.13899872,81.18446784,-2.49600003
168.51004140,58.66045859,16.44526083,123.59004800,-166.57019712,-66.17419200
-93.71872430,-32.40246088,-179.98909539,0.04664218,0.49967746,-8.44965307
-1.27107538,0.85002890,2.78864284

>  <COMPND>
    UNNAMED

>  <MASTER>
        0    0    0    0    0    0    0    0  109    0  109    0

>  <Name>
FB1.pdb

>  <RI>
0

>  <Rbt.Current_Directory>
/cluster/tossine/FB1_39T3/p3/1_clust02

>  <Rbt.Executable>
rbdock/0.1.0

>  <Rbt.Library>
librxdock.so/0.1.0

>  <Rbt.Parameter_File>
/cluster/rxdock/data/scripts/dock.prm

>  <Rbt.Receptor>
rx_3.prm

>  <SCORE>
52.9923

>  <SCORE.INTER>
18.177

>  <SCORE.INTER.CONST>
1

>  <SCORE.INTER.POLAR>
-3.04793

>  <SCORE.INTER.REPUL>
0.879547

>  <SCORE.INTER.ROT>
32

>  <SCORE.INTER.VDW>
-13.2578

>  <SCORE.INTER.norm>
0.36354

>  <SCORE.INTRA>
30.964

>  <SCORE.INTRA.DIHEDRAL>
56.1009

>  <SCORE.INTRA.DIHEDRAL.0>
47.3121

>  <SCORE.INTRA.POLAR>
0.512057

>  <SCORE.INTRA.POLAR.0>
-1.47808

>  <SCORE.INTRA.REPUL>
0

>  <SCORE.INTRA.REPUL.0>
0

>  <SCORE.INTRA.VDW>
1.1725

>  <SCORE.INTRA.VDW.0>
-2.78316

>  <SCORE.INTRA.norm>
0.619279

>  <SCORE.RESTR>
3.85136

>  <SCORE.RESTR.CAVITY>
3.85136

>  <SCORE.RESTR.norm>
0.0770271

>  <SCORE.SYSTEM>
0

>  <SCORE.SYSTEM.CONST>
0

>  <SCORE.SYSTEM.DIHEDRAL>
0

>  <SCORE.SYSTEM.norm>
0

>  <SCORE.heavy>
50

>  <SCORE.norm>
1.05985

$$$$
