FB1.pdb
  RxDock  10072008403D
librxdock.so/0.1.0
 59 58  0  0  0  0  0  0  0  0999 V2000
    4.9127   -0.2285   -8.8946 C   0  0  0  0  0  0
    3.4928   -0.3400   -9.4448 C   0  0  0  0  0  0
    2.6476   -1.3418   -8.6408 C   0  0  0  0  0  0
    1.1331   -1.2658   -8.9571 C   0  0  0  0  0  0
    0.7805   -1.1497  -10.4812 C   0  0  0  0  0  0
    0.5122   -2.5712  -11.0271 C   0  0  0  0  0  0
   -0.4465   -0.1877  -10.7758 C   0  0  0  0  0  0
   -1.9132   -0.8071  -10.5983 C   0  0  0  0  0  0
   -2.4891   -1.4237   -9.2506 C   0  0  0  0  0  0
   -3.5663   -2.6571   -9.4500 C   0  0  0  0  0  0
   -4.2505   -2.4891  -10.8056 C   0  0  0  0  0  0
   -2.9749   -4.1336   -9.3286 C   0  0  0  0  0  0
   -3.8800   -5.4748   -9.3049 C   0  0  0  0  0  0
   -3.6710   -6.6475  -10.3233 C   0  0  0  0  0  0
   -4.8337   -7.7303  -10.4806 C   0  0  0  0  0  0
   -6.3443   -7.4742  -10.0970 C   0  0  0  0  0  0
   -6.7329   -7.2830   -8.6071 C   0  0  0  0  0  0
   -8.2717   -7.1326   -8.2930 C   0  0  0  0  0  0
   -8.7244   -7.5623   -6.8920 C   0  0  0  0  0  0
   -7.6562   -8.1267   -5.9128 C   0  0  0  0  0  0
   -8.0793   -8.7200   -4.5364 C   0  0  0  0  0  0
   -6.9617   -9.2801   -3.6677 C   0  0  0  0  0  0
   -8.9031   -7.7577   -3.7802 N   0  0  0  0  0  0
   -7.0498   -9.2332   -6.6282 O   0  0  0  0  0  0
   -8.6296   -5.7597   -8.4854 O   0  0  0  0  0  0
   -3.6464   -6.0555   -8.0108 O   0  0  0  0  0  0
   -2.8463    0.2549  -10.9357 O   0  0  0  0  0  0
   -3.4127    0.2095  -12.1696 C   0  0  0  0  0  0
   -3.4394   -0.7521  -12.9139 O   0  0  0  0  0  0
   -4.0966    1.5236  -12.4280 C   0  0  0  0  0  0
   -5.1941    1.8308  -11.3966 C   0  0  0  0  0  0
   -5.7232    3.2663  -11.5100 C   0  0  0  0  0  0
   -4.5945    4.2694  -11.4527 C   0  0  0  0  0  0
   -3.8519    4.4003  -10.4857 O   0  0  0  0  0  0
   -4.4786    5.0074  -12.5666 O   0  0  0  0  0  0
   -6.3250    0.8307  -11.6735 C   0  0  0  0  0  0
   -7.4936    1.1636  -11.8000 O   0  0  0  0  0  0
   -5.9326   -0.4499  -11.7167 O   0  0  0  0  0  0
   -0.2993    1.1026  -10.0594 O   0  0  0  0  0  0
    0.5916    2.0370  -10.5608 C   0  0  0  0  0  0
    1.3887    1.8238  -11.4650 O   0  0  0  0  0  0
    0.4744    3.3936   -9.8536 C   0  0  0  0  0  0
    1.7690    4.2643   -9.8398 C   0  0  0  0  0  0
    1.7100    5.6373   -9.1457 C   0  0  0  0  0  0
    2.7787    6.5801   -9.6184 C   0  0  0  0  0  0
    2.6015    7.5634  -10.3243 O   0  0  0  0  0  0
    3.9959    6.2455   -9.1638 O   0  0  0  0  0  0
    3.0164    3.5439   -9.3132 C   0  0  0  0  0  0
    3.8465    3.0409  -10.0444 O   0  0  0  0  0  0
    3.1938    3.5948   -7.9763 O   0  0  0  0  0  0
   -8.3408   -6.9366   -3.5608 H   0  0  0  0  0  0
   -9.1349   -8.1683   -2.8730 H   0  0  0  0  0  0
   -6.2151   -9.4110   -6.1456 H   0  0  0  0  0  0
   -8.2378   -5.2388   -7.7605 H   0  0  0  0  0  0
   -4.5084   -6.2781   -7.6210 H   0  0  0  0  0  0
   -3.7717    5.6809  -12.5484 H   0  0  0  0  0  0
   -6.6567   -1.0942  -11.9150 H   0  0  0  0  0  0
    4.6186    6.9233   -9.5018 H   0  0  0  0  0  0
    2.4797    4.0476   -7.4751 H   0  0  0  0  0  0
  1  2  1  0  0  0
  2  3  1  0  0  0
  3  4  1  0  0  0
  4  5  1  0  0  0
  5  6  1  0  0  0
  5  7  1  0  0  0
  7  8  1  0  0  0
  7 39  1  0  0  0
  8  9  1  0  0  0
  8 27  1  0  0  0
  9 10  1  0  0  0
 10 11  1  0  0  0
 10 12  1  0  0  0
 12 13  1  0  0  0
 13 14  1  0  0  0
 13 26  1  0  0  0
 14 15  1  0  0  0
 15 16  1  0  0  0
 16 17  1  0  0  0
 17 18  1  0  0  0
 18 19  1  0  0  0
 18 25  1  0  0  0
 19 20  1  0  0  0
 20 21  1  0  0  0
 20 24  1  0  0  0
 21 22  1  0  0  0
 21 23  1  0  0  0
 23 51  1  0  0  0
 23 52  1  0  0  0
 24 53  1  0  0  0
 25 54  1  0  0  0
 26 55  1  0  0  0
 27 28  1  0  0  0
 28 29  2  0  0  0
 28 30  1  0  0  0
 30 31  1  0  0  0
 31 32  1  0  0  0
 31 36  1  0  0  0
 32 33  1  0  0  0
 33 34  2  0  0  0
 33 35  1  0  0  0
 35 56  1  0  0  0
 36 37  2  0  0  0
 36 38  1  0  0  0
 38 57  1  0  0  0
 39 40  1  0  0  0
 40 41  2  0  0  0
 40 42  1  0  0  0
 42 43  1  0  0  0
 43 44  1  0  0  0
 43 48  1  0  0  0
 44 45  1  0  0  0
 45 46  2  0  0  0
 45 47  1  0  0  0
 47 58  1  0  0  0
 48 49  2  0  0  0
 48 50  1  0  0  0
 50 59  1  0  0  0
M  END
>  <AUTHOR>
    GENERATED BY OPEN BABEL 2.4.1

>  <CHROM.1>
167.46269945,43.73682586,94.27643114,-82.17748053,59.22326499,76.39160062
-148.20532521,101.26038877,-26.71334835,172.01537226,124.11352444,-163.81476322
131.77542002,22.23989431,-67.69411861,-175.85673670,153.62878272,-1.01950823
-71.33159313,-173.39581123,178.41390034,163.30753494,-64.26365728,16.14346721
-59.83688281,170.07799709,-53.39271874,-130.01436150,-61.83350091,178.44593824
-178.70645863,-9.05085735,152.93132647,179.91134314,-158.23012395,97.87322006
108.26631172,-178.61856981,3.10894384,-2.56419259,-1.04475810,-9.60288771
-0.91447739,0.22601228,2.72560451

>  <COMPND>
    UNNAMED

>  <MASTER>
        0    0    0    0    0    0    0    0  109    0  109    0

>  <Name>
FB1.pdb

>  <RI>
0

>  <Rbt.Current_Directory>
/cluster/tossine/FB1_39T3/p3/1_clust02

>  <Rbt.Executable>
rbdock/0.1.0

>  <Rbt.Library>
librxdock.so/0.1.0

>  <Rbt.Parameter_File>
/cluster/rxdock/data/scripts/dock.prm

>  <Rbt.Receptor>
rx_2.prm

>  <SCORE>
19.4849

>  <SCORE.INTER>
-1.10449

>  <SCORE.INTER.CONST>
1

>  <SCORE.INTER.POLAR>
-2.69847

>  <SCORE.INTER.REPUL>
0.163733

>  <SCORE.INTER.ROT>
32

>  <SCORE.INTER.VDW>
-30.1483

>  <SCORE.INTER.norm>
-0.0220897

>  <SCORE.INTRA>
14.9968

>  <SCORE.INTRA.DIHEDRAL>
16.5749

>  <SCORE.INTRA.DIHEDRAL.0>
47.3121

>  <SCORE.INTRA.POLAR>
1.47808

>  <SCORE.INTRA.POLAR.0>
-1.47808

>  <SCORE.INTRA.REPUL>
0

>  <SCORE.INTRA.REPUL.0>
0

>  <SCORE.INTRA.VDW>
1.68385

>  <SCORE.INTRA.VDW.0>
-2.78316

>  <SCORE.INTRA.norm>
0.299935

>  <SCORE.RESTR>
5.59264

>  <SCORE.RESTR.CAVITY>
5.59264

>  <SCORE.RESTR.norm>
0.111853

>  <SCORE.SYSTEM>
0

>  <SCORE.SYSTEM.CONST>
0

>  <SCORE.SYSTEM.DIHEDRAL>
0

>  <SCORE.SYSTEM.norm>
0

>  <SCORE.heavy>
50

>  <SCORE.norm>
0.389698

$$$$
