FB1.pdb
  RxDock  10072008043D
librxdock.so/0.1.0
 59 58  0  0  0  0  0  0  0  0999 V2000
   -5.1253   -5.8276   -8.9147 C   0  0  0  0  0  0
   -4.6331   -4.8386   -9.9687 C   0  0  0  0  0  0
   -5.5572   -4.8091  -11.1973 C   0  0  0  0  0  0
   -4.9943   -3.9728  -12.3735 C   0  0  0  0  0  0
   -5.1266   -2.4191  -12.2034 C   0  0  0  0  0  0
   -6.6155   -2.0826  -11.9576 C   0  0  0  0  0  0
   -4.2131   -1.8285  -11.0481 C   0  0  0  0  0  0
   -2.6456   -2.1494  -11.1268 C   0  0  0  0  0  0
   -1.4960   -1.0626  -11.2870 C   0  0  0  0  0  0
   -0.1284   -1.3570  -10.4128 C   0  0  0  0  0  0
    0.4756   -2.6778  -10.8872 C   0  0  0  0  0  0
    0.9865   -0.2165  -10.4461 C   0  0  0  0  0  0
    0.7081    1.3357  -10.0831 C   0  0  0  0  0  0
    1.1463    1.9712   -8.7193 C   0  0  0  0  0  0
    1.2266    3.5625   -8.6163 C   0  0  0  0  0  0
    2.2008    4.4606   -9.4758 C   0  0  0  0  0  0
    1.9764    5.9949   -9.5321 C   0  0  0  0  0  0
    2.2593    6.7985   -8.2043 C   0  0  0  0  0  0
    3.6765    7.3614   -8.0397 C   0  0  0  0  0  0
    4.8198    6.3797   -7.6554 C   0  0  0  0  0  0
    6.2654    6.9051   -7.4115 C   0  0  0  0  0  0
    6.5000    7.6651   -6.1135 C   0  0  0  0  0  0
    7.2529    5.8211   -7.5737 N   0  0  0  0  0  0
    4.4068    5.8134   -6.3855 O   0  0  0  0  0  0
    1.3283    7.8841   -8.1381 O   0  0  0  0  0  0
    1.4131    2.0826  -11.0889 O   0  0  0  0  0  0
   -2.3116   -2.8478   -9.8967 O   0  0  0  0  0  0
   -2.5530   -2.1936   -8.7309 C   0  0  0  0  0  0
   -3.4003   -1.3406   -8.5467 O   0  0  0  0  0  0
   -1.6615   -2.7722   -7.6670 C   0  0  0  0  0  0
   -2.2606   -4.0278   -7.0134 C   0  0  0  0  0  0
   -1.4781   -5.3014   -7.3585 C   0  0  0  0  0  0
   -1.2078   -5.3898   -8.8425 C   0  0  0  0  0  0
   -1.9981   -5.8688   -9.6486 O   0  0  0  0  0  0
   -0.0151   -4.8905   -9.1991 O   0  0  0  0  0  0
   -2.2158   -3.7777   -5.4997 C   0  0  0  0  0  0
   -3.2143   -3.5634   -4.8292 O   0  0  0  0  0  0
   -0.9816   -3.7642   -4.9777 O   0  0  0  0  0  0
   -4.4734   -0.3823  -10.8462 O   0  0  0  0  0  0
   -4.3612    0.4659  -11.9352 C   0  0  0  0  0  0
   -4.2561    0.0967  -13.0975 O   0  0  0  0  0  0
   -4.3833    1.9451  -11.5278 C   0  0  0  0  0  0
   -3.3829    2.8715  -12.2863 C   0  0  0  0  0  0
   -3.5924    3.0788  -13.7974 C   0  0  0  0  0  0
   -2.3239    3.4219  -14.5239 C   0  0  0  0  0  0
   -1.2585    3.7161  -13.9994 O   0  0  0  0  0  0
   -2.4621    3.3565  -15.8569 O   0  0  0  0  0  0
   -3.1988    4.2594  -11.6600 C   0  0  0  0  0  0
   -4.0693    4.8157  -11.0201 O   0  0  0  0  0  0
   -1.9617    4.7866  -11.7731 O   0  0  0  0  0  0
    7.9643    6.1146   -8.2417 H   0  0  0  0  0  0
    6.7914    5.0221   -8.0143 H   0  0  0  0  0  0
    4.2090    6.5907   -5.8215 H   0  0  0  0  0  0
    0.4413    7.5146   -7.9729 H   0  0  0  0  0  0
    0.9973    1.8976  -11.9476 H   0  0  0  0  0  0
    0.5145   -4.5154   -8.4695 H   0  0  0  0  0  0
   -0.2544   -3.8585   -5.6419 H   0  0  0  0  0  0
   -3.4113    3.1852  -16.0332 H   0  0  0  0  0  0
   -1.3254    4.2547  -12.3007 H   0  0  0  0  0  0
  1  2  1  0  0  0
  2  3  1  0  0  0
  3  4  1  0  0  0
  4  5  1  0  0  0
  5  6  1  0  0  0
  5  7  1  0  0  0
  7  8  1  0  0  0
  7 39  1  0  0  0
  8  9  1  0  0  0
  8 27  1  0  0  0
  9 10  1  0  0  0
 10 11  1  0  0  0
 10 12  1  0  0  0
 12 13  1  0  0  0
 13 14  1  0  0  0
 13 26  1  0  0  0
 14 15  1  0  0  0
 15 16  1  0  0  0
 16 17  1  0  0  0
 17 18  1  0  0  0
 18 19  1  0  0  0
 18 25  1  0  0  0
 19 20  1  0  0  0
 20 21  1  0  0  0
 20 24  1  0  0  0
 21 22  1  0  0  0
 21 23  1  0  0  0
 23 51  1  0  0  0
 23 52  1  0  0  0
 24 53  1  0  0  0
 25 54  1  0  0  0
 26 55  1  0  0  0
 27 28  1  0  0  0
 28 29  2  0  0  0
 28 30  1  0  0  0
 30 31  1  0  0  0
 31 32  1  0  0  0
 31 36  1  0  0  0
 32 33  1  0  0  0
 33 34  2  0  0  0
 33 35  1  0  0  0
 35 56  1  0  0  0
 36 37  2  0  0  0
 36 38  1  0  0  0
 38 57  1  0  0  0
 39 40  1  0  0  0
 40 41  2  0  0  0
 40 42  1  0  0  0
 42 43  1  0  0  0
 43 44  1  0  0  0
 43 48  1  0  0  0
 44 45  1  0  0  0
 45 46  2  0  0  0
 45 47  1  0  0  0
 47 58  1  0  0  0
 48 49  2  0  0  0
 48 50  1  0  0  0
 50 59  1  0  0  0
M  END
>  <AUTHOR>
    GENERATED BY OPEN BABEL 2.4.1

>  <CHROM.1>
-171.86972178,-77.14071787,-55.66076869,55.15683981,117.48854747,-55.06228465
141.16746653,-59.08883024,61.60675385,53.48666841,103.78645668,162.18691964
65.11623068,-62.38076208,166.21365597,69.06109908,91.94565763,-75.93772471
69.95399957,-177.20384653,73.63355807,-52.46847935,126.55131926,27.45482363
-84.70866820,111.70492079,-47.85131793,108.72825421,-85.85605930,-1.50683859
3.76652794,11.35028993,139.41159703,65.26291458,-153.77993006,-28.76005306
-10.70065049,5.86223662,4.19618187,-1.10465751,0.58505800,-9.85930836,-2.42787261
-0.70340617,-0.51274594

>  <COMPND>
    UNNAMED

>  <MASTER>
        0    0    0    0    0    0    0    0  109    0  109    0

>  <Name>
FB1.pdb

>  <RI>
0

>  <Rbt.Current_Directory>
/cluster/tossine/FB1_39T3/p3/1_clust02

>  <Rbt.Executable>
rbdock/0.1.0

>  <Rbt.Library>
librxdock.so/0.1.0

>  <Rbt.Parameter_File>
/cluster/rxdock/data/scripts/dock.prm

>  <Rbt.Receptor>
rx_1.prm

>  <SCORE>
3.48874

>  <SCORE.INTER>
-6.12645

>  <SCORE.INTER.CONST>
1

>  <SCORE.INTER.POLAR>
-1.98597

>  <SCORE.INTER.REPUL>
0.745429

>  <SCORE.INTER.ROT>
32

>  <SCORE.INTER.VDW>
-40.5013

>  <SCORE.INTER.norm>
-0.122529

>  <SCORE.INTRA>
8.73691

>  <SCORE.INTRA.DIHEDRAL>
4.17479

>  <SCORE.INTRA.DIHEDRAL.0>
47.3121

>  <SCORE.INTRA.POLAR>
0.882874

>  <SCORE.INTRA.POLAR.0>
-1.47808

>  <SCORE.INTRA.REPUL>
0

>  <SCORE.INTRA.REPUL.0>
0

>  <SCORE.INTRA.VDW>
3.64775

>  <SCORE.INTRA.VDW.0>
-2.78316

>  <SCORE.INTRA.norm>
0.174738

>  <SCORE.RESTR>
0.878271

>  <SCORE.RESTR.CAVITY>
0.878271

>  <SCORE.RESTR.norm>
0.0175654

>  <SCORE.SYSTEM>
0

>  <SCORE.SYSTEM.CONST>
0

>  <SCORE.SYSTEM.DIHEDRAL>
0

>  <SCORE.SYSTEM.norm>
0

>  <SCORE.heavy>
50

>  <SCORE.norm>
0.0697748

$$$$
