FB1.pdb
  RxDock  10072009063D
librxdock.so/0.1.0
 59 58  0  0  0  0  0  0  0  0999 V2000
   -2.8368   -1.7520   -0.7062 C   0  0  0  0  0  0
   -3.5529   -2.8426   -1.4993 C   0  0  0  0  0  0
   -2.5692   -3.6775   -2.3357 C   0  0  0  0  0  0
   -3.1426   -4.1180   -3.7057 C   0  0  0  0  0  0
   -2.8747   -3.1208   -4.8865 C   0  0  0  0  0  0
   -3.1983   -1.6904   -4.3969 C   0  0  0  0  0  0
   -1.3983   -3.2031   -5.4622 C   0  0  0  0  0  0
   -1.2045   -3.9689   -6.8558 C   0  0  0  0  0  0
    0.0113   -3.7524   -7.8575 C   0  0  0  0  0  0
   -0.3984   -3.7045   -9.4547 C   0  0  0  0  0  0
   -1.7773   -3.0592   -9.5827 C   0  0  0  0  0  0
    0.6308   -2.9636  -10.4226 C   0  0  0  0  0  0
    0.8906   -1.3664  -10.4197 C   0  0  0  0  0  0
   -0.0689   -0.3605   -9.6961 C   0  0  0  0  0  0
   -0.4727    0.9829  -10.4587 C   0  0  0  0  0  0
    0.5432    2.1339  -10.8297 C   0  0  0  0  0  0
    0.0031    3.5403  -11.2007 C   0  0  0  0  0  0
   -0.8834    3.6348  -12.5024 C   0  0  0  0  0  0
   -2.2378    2.9164  -12.4557 C   0  0  0  0  0  0
   -3.5156    3.7673  -12.2082 C   0  0  0  0  0  0
   -4.9269    3.1113  -12.2669 C   0  0  0  0  0  0
   -5.1571    1.9164  -11.3523 C   0  0  0  0  0  0
   -5.9849    4.1238  -12.0881 N   0  0  0  0  0  0
   -3.3804    4.2458  -10.8456 O   0  0  0  0  0  0
   -1.1129    5.0202  -12.7809 O   0  0  0  0  0  0
    2.1643   -1.2003   -9.7742 O   0  0  0  0  0  0
   -1.1608   -5.3864   -6.5379 O   0  0  0  0  0  0
   -2.3451   -5.9951   -6.2688 C   0  0  0  0  0  0
   -3.4500   -5.4978   -6.3751 O   0  0  0  0  0  0
   -2.0723   -7.4300   -5.9113 C   0  0  0  0  0  0
   -3.3547   -8.2742   -5.8381 C   0  0  0  0  0  0
   -3.0817   -9.7749   -6.0013 C   0  0  0  0  0  0
   -4.3620  -10.5380   -6.2500 C   0  0  0  0  0  0
   -5.1811  -10.2272   -7.1079 O   0  0  0  0  0  0
   -4.5195  -11.5957   -5.4404 O   0  0  0  0  0  0
   -3.9631   -7.9982   -4.4561 C   0  0  0  0  0  0
   -3.3558   -7.4295   -3.5616 O   0  0  0  0  0  0
   -5.2037   -8.4777   -4.2923 O   0  0  0  0  0  0
   -0.7508   -1.8687   -5.4682 O   0  0  0  0  0  0
    0.4120   -1.6970   -4.7358 C   0  0  0  0  0  0
    1.1304   -2.6083   -4.3461 O   0  0  0  0  0  0
    0.7139   -0.2186   -4.4577 C   0  0  0  0  0  0
    1.2344    0.6071   -5.6750 C   0  0  0  0  0  0
    0.1943    1.2488   -6.6115 C   0  0  0  0  0  0
    0.8144    2.1051   -7.6777 C   0  0  0  0  0  0
    0.5843    3.2922   -7.8630 O   0  0  0  0  0  0
    1.6956    1.4292   -8.4307 O   0  0  0  0  0  0
    2.2548    1.6950   -5.3182 C   0  0  0  0  0  0
    3.2388    1.9244   -5.9933 O   0  0  0  0  0  0
    1.9354    2.4626   -4.2551 O   0  0  0  0  0  0
   -5.9648    4.4618  -11.1269 H   0  0  0  0  0  0
   -6.8942    3.6671  -12.1878 H   0  0  0  0  0  0
   -2.7922    5.0271  -10.9158 H   0  0  0  0  0  0
   -0.6940    5.5459  -12.0747 H   0  0  0  0  0  0
    2.0399   -0.6127   -9.0101 H   0  0  0  0  0  0
   -5.2886  -12.1629   -5.6409 H   0  0  0  0  0  0
   -5.5791   -8.3430   -3.3869 H   0  0  0  0  0  0
    2.3367    2.0875   -8.7726 H   0  0  0  0  0  0
    2.5840    3.1683   -4.0370 H   0  0  0  0  0  0
  1  2  1  0  0  0
  2  3  1  0  0  0
  3  4  1  0  0  0
  4  5  1  0  0  0
  5  6  1  0  0  0
  5  7  1  0  0  0
  7  8  1  0  0  0
  7 39  1  0  0  0
  8  9  1  0  0  0
  8 27  1  0  0  0
  9 10  1  0  0  0
 10 11  1  0  0  0
 10 12  1  0  0  0
 12 13  1  0  0  0
 13 14  1  0  0  0
 13 26  1  0  0  0
 14 15  1  0  0  0
 15 16  1  0  0  0
 16 17  1  0  0  0
 17 18  1  0  0  0
 18 19  1  0  0  0
 18 25  1  0  0  0
 19 20  1  0  0  0
 20 21  1  0  0  0
 20 24  1  0  0  0
 21 22  1  0  0  0
 21 23  1  0  0  0
 23 51  1  0  0  0
 23 52  1  0  0  0
 24 53  1  0  0  0
 25 54  1  0  0  0
 26 55  1  0  0  0
 27 28  1  0  0  0
 28 29  2  0  0  0
 28 30  1  0  0  0
 30 31  1  0  0  0
 31 32  1  0  0  0
 31 36  1  0  0  0
 32 33  1  0  0  0
 33 34  2  0  0  0
 33 35  1  0  0  0
 35 56  1  0  0  0
 36 37  2  0  0  0
 36 38  1  0  0  0
 38 57  1  0  0  0
 39 40  1  0  0  0
 40 41  2  0  0  0
 40 42  1  0  0  0
 42 43  1  0  0  0
 43 44  1  0  0  0
 43 48  1  0  0  0
 44 45  1  0  0  0
 45 46  2  0  0  0
 45 47  1  0  0  0
 47 58  1  0  0  0
 48 49  2  0  0  0
 48 50  1  0  0  0
 50 59  1  0  0  0
M  END
>  <AUTHOR>
    GENERATED BY OPEN BABEL 2.4.1

>  <CHROM.1>
-143.91527539,90.37599069,-45.99067282,103.50431860,157.22070958,120.07689866
-138.45962262,77.12737246,33.69884677,-69.51431305,-14.14642867,-136.01523849
-122.81709017,-65.53314004,-162.92579244,-63.73947748,66.28504184,101.18690009
-2.31376322,174.95028237,55.59809759,81.88903183,-69.44754615,6.51837237
-169.54712012,158.46494085,-166.65055422,-12.79508238,50.71728819,-173.69569932
176.91207127,18.60625403,-73.81781942,86.71952926,175.40589601,139.15187568
-121.96359961,-153.30951241,-179.07669947,-1.50889264,-1.87907599,-7.30012686
-1.90416431,-0.90022184,-0.73657843

>  <COMPND>
    UNNAMED

>  <MASTER>
        0    0    0    0    0    0    0    0  109    0  109    0

>  <Name>
FB1.pdb

>  <RI>
0

>  <Rbt.Current_Directory>
/cluster/tossine/FB1_39T3/p3/1_clust02

>  <Rbt.Executable>
rbdock/0.1.0

>  <Rbt.Library>
librxdock.so/0.1.0

>  <Rbt.Parameter_File>
/cluster/rxdock/data/scripts/dock.prm

>  <Rbt.Receptor>
rx_3.prm

>  <SCORE>
81.5807

>  <SCORE.INTER>
54.0802

>  <SCORE.INTER.CONST>
1

>  <SCORE.INTER.POLAR>
-0.0202476

>  <SCORE.INTER.REPUL>
1.08322

>  <SCORE.INTER.ROT>
32

>  <SCORE.INTER.VDW>
11.3329

>  <SCORE.INTER.norm>
1.0816

>  <SCORE.INTRA>
24.1893

>  <SCORE.INTRA.DIHEDRAL>
36.2494

>  <SCORE.INTRA.DIHEDRAL.0>
47.3121

>  <SCORE.INTRA.POLAR>
0.603802

>  <SCORE.INTRA.POLAR.0>
-1.47808

>  <SCORE.INTRA.REPUL>
0

>  <SCORE.INTRA.REPUL.0>
0

>  <SCORE.INTRA.VDW>
4.01164

>  <SCORE.INTRA.VDW.0>
-2.78316

>  <SCORE.INTRA.norm>
0.483786

>  <SCORE.RESTR>
3.31126

>  <SCORE.RESTR.CAVITY>
3.31126

>  <SCORE.RESTR.norm>
0.0662251

>  <SCORE.SYSTEM>
0

>  <SCORE.SYSTEM.CONST>
0

>  <SCORE.SYSTEM.DIHEDRAL>
0

>  <SCORE.SYSTEM.norm>
0

>  <SCORE.heavy>
50

>  <SCORE.norm>
1.63161

$$$$
