FB1.pdb
  RxDock  10072009543D
librxdock.so/0.1.0
 59 58  0  0  0  0  0  0  0  0999 V2000
   -6.4562   -8.7286   -9.1362 C   0  0  0  0  0  0
   -5.5597   -7.8618   -8.2551 C   0  0  0  0  0  0
   -4.8024   -6.8061   -9.0776 C   0  0  0  0  0  0
   -3.9706   -5.8281   -8.2108 C   0  0  0  0  0  0
   -3.1070   -4.7981   -9.0195 C   0  0  0  0  0  0
   -4.0479   -4.0041   -9.9548 C   0  0  0  0  0  0
   -2.2630   -3.8189   -8.0993 C   0  0  0  0  0  0
   -1.5395   -2.5864   -8.8229 C   0  0  0  0  0  0
    0.0280   -2.3197   -8.8271 C   0  0  0  0  0  0
    0.4764   -0.7790   -8.4442 C   0  0  0  0  0  0
   -0.0402   -0.4576   -7.0428 C   0  0  0  0  0  0
    2.0374   -0.4604   -8.5250 C   0  0  0  0  0  0
    2.9681   -0.8004   -9.8044 C   0  0  0  0  0  0
    4.0036    0.2223  -10.3855 C   0  0  0  0  0  0
    3.5710    1.7548  -10.5017 C   0  0  0  0  0  0
    2.9871    2.6064   -9.3065 C   0  0  0  0  0  0
    2.8357    4.1425   -9.4645 C   0  0  0  0  0  0
    1.3733    4.7230   -9.3477 C   0  0  0  0  0  0
    0.2277    3.7166   -9.5125 C   0  0  0  0  0  0
   -0.2415    3.3627  -10.9522 C   0  0  0  0  0  0
   -0.8833    4.4492  -11.8649 C   0  0  0  0  0  0
   -1.4901    3.9626  -13.1735 C   0  0  0  0  0  0
   -1.8494    5.2677  -11.1079 N   0  0  0  0  0  0
    0.9675    2.9578  -11.6437 O   0  0  0  0  0  0
    1.2478    5.3494   -8.0665 O   0  0  0  0  0  0
    3.7497   -1.9375   -9.4010 O   0  0  0  0  0  0
   -1.8929   -2.6770  -10.2299 O   0  0  0  0  0  0
   -2.3275   -1.5391  -10.8312 C   0  0  0  0  0  0
   -1.9961   -0.4037  -10.5473 O   0  0  0  0  0  0
   -3.2164   -1.9191  -11.9830 C   0  0  0  0  0  0
   -3.8109   -0.6956  -12.6986 C   0  0  0  0  0  0
   -4.5053   -1.0639  -14.0160 C   0  0  0  0  0  0
   -4.8048   -2.5437  -14.0791 C   0  0  0  0  0  0
   -3.9877   -3.3866  -14.4335 O   0  0  0  0  0  0
   -6.0560   -2.8519  -13.7071 O   0  0  0  0  0  0
   -4.8267   -0.0878  -11.7215 C   0  0  0  0  0  0
   -6.0354   -0.1895  -11.8670 O   0  0  0  0  0  0
   -4.2787    0.6095  -10.7168 O   0  0  0  0  0  0
   -3.0478   -3.3851   -6.9179 O   0  0  0  0  0  0
   -2.4276   -3.3820   -5.6795 C   0  0  0  0  0  0
   -1.2869   -3.7742   -5.4711 O   0  0  0  0  0  0
   -3.3341   -2.8250   -4.5739 C   0  0  0  0  0  0
   -2.6558   -2.6124   -3.1849 C   0  0  0  0  0  0
   -2.0890   -3.8468   -2.4602 C   0  0  0  0  0  0
   -3.1565   -4.7205   -1.8673 C   0  0  0  0  0  0
   -3.1937   -5.9419   -1.9270 O   0  0  0  0  0  0
   -4.0976   -4.0147   -1.2221 O   0  0  0  0  0  0
   -1.5640   -1.5354   -3.1666 C   0  0  0  0  0  0
   -1.2332   -0.9137   -4.1570 O   0  0  0  0  0  0
   -1.0607   -1.2412   -1.9495 O   0  0  0  0  0  0
   -2.7820    5.1257  -11.4934 H   0  0  0  0  0  0
   -1.6428    6.2550  -11.2751 H   0  0  0  0  0  0
    1.2495    2.1371  -11.1874 H   0  0  0  0  0  0
    0.3239    5.6421   -7.9602 H   0  0  0  0  0  0
    4.3765   -1.6447   -8.7185 H   0  0  0  0  0  0
   -6.5387   -2.1427  -13.2408 H   0  0  0  0  0  0
   -3.6585    1.3246  -11.0044 H   0  0  0  0  0  0
   -4.6843   -4.6650   -0.7813 H   0  0  0  0  0  0
   -1.2335   -1.9108   -1.2509 H   0  0  0  0  0  0
  1  2  1  0  0  0
  2  3  1  0  0  0
  3  4  1  0  0  0
  4  5  1  0  0  0
  5  6  1  0  0  0
  5  7  1  0  0  0
  7  8  1  0  0  0
  7 39  1  0  0  0
  8  9  1  0  0  0
  8 27  1  0  0  0
  9 10  1  0  0  0
 10 11  1  0  0  0
 10 12  1  0  0  0
 12 13  1  0  0  0
 13 14  1  0  0  0
 13 26  1  0  0  0
 14 15  1  0  0  0
 15 16  1  0  0  0
 16 17  1  0  0  0
 17 18  1  0  0  0
 18 19  1  0  0  0
 18 25  1  0  0  0
 19 20  1  0  0  0
 20 21  1  0  0  0
 20 24  1  0  0  0
 21 22  1  0  0  0
 21 23  1  0  0  0
 23 51  1  0  0  0
 23 52  1  0  0  0
 24 53  1  0  0  0
 25 54  1  0  0  0
 26 55  1  0  0  0
 27 28  1  0  0  0
 28 29  2  0  0  0
 28 30  1  0  0  0
 30 31  1  0  0  0
 31 32  1  0  0  0
 31 36  1  0  0  0
 32 33  1  0  0  0
 33 34  2  0  0  0
 33 35  1  0  0  0
 35 56  1  0  0  0
 36 37  2  0  0  0
 36 38  1  0  0  0
 38 57  1  0  0  0
 39 40  1  0  0  0
 40 41  2  0  0  0
 40 42  1  0  0  0
 42 43  1  0  0  0
 43 44  1  0  0  0
 43 48  1  0  0  0
 44 45  1  0  0  0
 45 46  2  0  0  0
 45 47  1  0  0  0
 47 58  1  0  0  0
 48 49  2  0  0  0
 48 50  1  0  0  0
 50 59  1  0  0  0
M  END
>  <AUTHOR>
    GENERATED BY OPEN BABEL 2.4.1

>  <CHROM.1>
175.21762945,176.02506358,56.63304887,-170.37375698,-120.09985117,135.62701782
-131.67347586,132.05813826,59.55940608,50.70964424,135.09628677,-41.76932733
-69.14579124,52.81340266,169.29427303,118.94790736,-17.72385191,-83.99063545
-175.24845393,-64.37616061,-171.46416062,65.31828042,-115.84760120,30.52102542
177.61156578,169.61016854,17.40517750,-105.98146875,-83.50583967,-14.46958451
54.20601625,-3.67035263,-172.37961208,-62.00047908,-74.26564935,-1.33922616
136.06217162,-173.32252263,17.64617556,-1.74228443,-1.25107791,-8.73378603
2.18029273,0.82998944,2.03194880

>  <COMPND>
    UNNAMED

>  <MASTER>
        0    0    0    0    0    0    0    0  109    0  109    0

>  <Name>
FB1.pdb

>  <RI>
0

>  <Rbt.Current_Directory>
/cluster/tossine/FB1_39T3/p3/1_clust02

>  <Rbt.Executable>
rbdock/0.1.0

>  <Rbt.Library>
librxdock.so/0.1.0

>  <Rbt.Parameter_File>
/cluster/rxdock/data/scripts/dock.prm

>  <Rbt.Receptor>
rx_4.prm

>  <SCORE>
77.6443

>  <SCORE.INTER>
41.3442

>  <SCORE.INTER.CONST>
1

>  <SCORE.INTER.POLAR>
-1.14545

>  <SCORE.INTER.REPUL>
3.86974

>  <SCORE.INTER.ROT>
32

>  <SCORE.INTER.VDW>
-11.51

>  <SCORE.INTER.norm>
0.826883

>  <SCORE.INTRA>
32.235

>  <SCORE.INTRA.DIHEDRAL>
37.006

>  <SCORE.INTRA.DIHEDRAL.0>
47.3121

>  <SCORE.INTRA.POLAR>
1.42531

>  <SCORE.INTRA.POLAR.0>
-1.47808

>  <SCORE.INTRA.REPUL>
0

>  <SCORE.INTRA.REPUL.0>
0

>  <SCORE.INTRA.VDW>
8.88595

>  <SCORE.INTRA.VDW.0>
-2.78316

>  <SCORE.INTRA.norm>
0.6447

>  <SCORE.RESTR>
4.06513

>  <SCORE.RESTR.CAVITY>
4.06513

>  <SCORE.RESTR.norm>
0.0813026

>  <SCORE.SYSTEM>
0

>  <SCORE.SYSTEM.CONST>
0

>  <SCORE.SYSTEM.DIHEDRAL>
0

>  <SCORE.SYSTEM.norm>
0

>  <SCORE.heavy>
50

>  <SCORE.norm>
1.55289

$$$$
