FB1.pdb
  RxDock  10072009573D
librxdock.so/0.1.0
 59 58  0  0  0  0  0  0  0  0999 V2000
    0.0232    2.3653   -5.5873 C   0  0  0  0  0  0
    0.8335    1.2846   -6.2992 C   0  0  0  0  0  0
    0.9400    0.0039   -5.4551 C   0  0  0  0  0  0
   -0.4274   -0.6701   -5.1802 C   0  0  0  0  0  0
   -0.6448   -2.0446   -5.9041 C   0  0  0  0  0  0
   -1.9831   -2.6447   -5.4147 C   0  0  0  0  0  0
   -0.6158   -1.9383   -7.4870 C   0  0  0  0  0  0
    0.2225   -3.0537   -8.2740 C   0  0  0  0  0  0
   -0.3530   -4.4508   -8.7693 C   0  0  0  0  0  0
   -1.7660   -4.9173   -8.0573 C   0  0  0  0  0  0
   -2.8654   -4.9220   -9.1181 C   0  0  0  0  0  0
   -1.7432   -6.3235   -7.3044 C   0  0  0  0  0  0
   -2.8876   -6.8199   -6.2736 C   0  0  0  0  0  0
   -2.7478   -8.1349   -5.4326 C   0  0  0  0  0  0
   -3.9495   -8.5468   -4.4655 C   0  0  0  0  0  0
   -5.3807   -8.9897   -4.9656 C   0  0  0  0  0  0
   -6.5349   -9.1446   -3.9402 C   0  0  0  0  0  0
   -6.5747  -10.4923   -3.1209 C   0  0  0  0  0  0
   -6.0068  -10.4389   -1.6971 C   0  0  0  0  0  0
   -4.4715  -10.5998   -1.5091 C   0  0  0  0  0  0
   -3.6657   -9.5703   -0.6628 C   0  0  0  0  0  0
   -3.5626   -8.1609   -1.2287 C   0  0  0  0  0  0
   -4.1470   -9.5449    0.7315 N   0  0  0  0  0  0
   -4.3169  -11.8621   -0.8117 O   0  0  0  0  0  0
   -7.9371  -10.9267   -3.0511 O   0  0  0  0  0  0
   -2.9948   -5.7640   -5.3040 O   0  0  0  0  0  0
    0.7107   -2.4159   -9.4853 O   0  0  0  0  0  0
    1.9382   -1.8371   -9.4259 C   0  0  0  0  0  0
    2.9890   -2.3416   -9.7734 O   0  0  0  0  0  0
    1.7738   -0.4200   -8.9504 C   0  0  0  0  0  0
    1.0690    0.4719   -9.9849 C   0  0  0  0  0  0
    0.6725    1.8383   -9.4114 C   0  0  0  0  0  0
    1.1928    2.9638  -10.2751 C   0  0  0  0  0  0
    0.5763    3.4282  -11.2279 O   0  0  0  0  0  0
    2.3996    3.4120   -9.8989 O   0  0  0  0  0  0
    2.0690    0.6550  -11.1350 C   0  0  0  0  0  0
    1.7895    0.4334  -12.3034 O   0  0  0  0  0  0
    3.2950    1.0324  -10.7470 O   0  0  0  0  0  0
   -1.9837   -1.7812   -8.0383 O   0  0  0  0  0  0
   -2.1220   -1.3204   -9.3370 C   0  0  0  0  0  0
   -1.2056   -0.8880  -10.0237 O   0  0  0  0  0  0
   -3.5698   -1.4096   -9.8371 C   0  0  0  0  0  0
   -3.9834   -0.3515  -10.9066 C   0  0  0  0  0  0
   -3.2507   -0.3670  -12.2606 C   0  0  0  0  0  0
   -3.6717   -1.5071  -13.1423 C   0  0  0  0  0  0
   -4.6059   -1.4911  -13.9320 O   0  0  0  0  0  0
   -2.8878   -2.5861  -12.9954 O   0  0  0  0  0  0
   -5.4868   -0.3013  -11.2058 C   0  0  0  0  0  0
   -6.0776    0.7325  -11.4488 O   0  0  0  0  0  0
   -6.1014   -1.5000  -11.2888 O   0  0  0  0  0  0
   -3.3685   -9.3199    1.3495 H   0  0  0  0  0  0
   -4.4291  -10.4911    0.9970 H   0  0  0  0  0  0
   -3.3482  -11.9656   -0.7007 H   0  0  0  0  0  0
   -7.9529  -11.8150   -2.6498 H   0  0  0  0  0  0
   -3.2407   -6.1619   -4.4521 H   0  0  0  0  0  0
    2.7682    4.1288  -10.4500 H   0  0  0  0  0  0
    3.3142    1.5772   -9.9214 H   0  0  0  0  0  0
   -2.0015   -2.2567  -12.7361 H   0  0  0  0  0  0
   -7.0388   -1.4715  -11.5833 H   0  0  0  0  0  0
  1  2  1  0  0  0
  2  3  1  0  0  0
  3  4  1  0  0  0
  4  5  1  0  0  0
  5  6  1  0  0  0
  5  7  1  0  0  0
  7  8  1  0  0  0
  7 39  1  0  0  0
  8  9  1  0  0  0
  8 27  1  0  0  0
  9 10  1  0  0  0
 10 11  1  0  0  0
 10 12  1  0  0  0
 12 13  1  0  0  0
 13 14  1  0  0  0
 13 26  1  0  0  0
 14 15  1  0  0  0
 15 16  1  0  0  0
 16 17  1  0  0  0
 17 18  1  0  0  0
 18 19  1  0  0  0
 18 25  1  0  0  0
 19 20  1  0  0  0
 20 21  1  0  0  0
 20 24  1  0  0  0
 21 22  1  0  0  0
 21 23  1  0  0  0
 23 51  1  0  0  0
 23 52  1  0  0  0
 24 53  1  0  0  0
 25 54  1  0  0  0
 26 55  1  0  0  0
 27 28  1  0  0  0
 28 29  2  0  0  0
 28 30  1  0  0  0
 30 31  1  0  0  0
 31 32  1  0  0  0
 31 36  1  0  0  0
 32 33  1  0  0  0
 33 34  2  0  0  0
 33 35  1  0  0  0
 35 56  1  0  0  0
 36 37  2  0  0  0
 36 38  1  0  0  0
 38 57  1  0  0  0
 39 40  1  0  0  0
 40 41  2  0  0  0
 40 42  1  0  0  0
 42 43  1  0  0  0
 43 44  1  0  0  0
 43 48  1  0  0  0
 44 45  1  0  0  0
 45 46  2  0  0  0
 45 47  1  0  0  0
 47 58  1  0  0  0
 48 49  2  0  0  0
 48 50  1  0  0  0
 50 59  1  0  0  0
M  END
>  <AUTHOR>
    GENERATED BY OPEN BABEL 2.4.1

>  <CHROM.1>
62.69088224,111.05910418,174.33256921,135.55050314,88.78694561,162.94218255
-17.25466557,91.85978406,113.67468851,165.75004797,-172.90088630,-178.84675354
-148.47652235,67.17010366,-170.10930769,-80.95319314,99.80167769,-83.90871693
172.63752128,129.08752601,-67.10476326,179.54168732,148.66136042,96.20696321
-68.70081583,169.55909532,127.18916353,127.76899656,88.32440412,178.90863733
-29.99928050,-8.57396551,151.15386014,62.61001052,74.17858644,143.89995119
88.18109735,-29.07506963,-173.15753788,-1.97427645,-3.24656897,-7.63195178
-1.14118140,0.57757734,2.23842695

>  <COMPND>
    UNNAMED

>  <MASTER>
        0    0    0    0    0    0    0    0  109    0  109    0

>  <Name>
FB1.pdb

>  <RI>
0

>  <Rbt.Current_Directory>
/cluster/tossine/FB1_39T3/p3/1_clust02

>  <Rbt.Executable>
rbdock/0.1.0

>  <Rbt.Library>
librxdock.so/0.1.0

>  <Rbt.Parameter_File>
/cluster/rxdock/data/scripts/dock.prm

>  <Rbt.Receptor>
rx_4.prm

>  <SCORE>
43.5421

>  <SCORE.INTER>
11.4171

>  <SCORE.INTER.CONST>
1

>  <SCORE.INTER.POLAR>
-1.89914

>  <SCORE.INTER.REPUL>
0.393491

>  <SCORE.INTER.ROT>
32

>  <SCORE.INTER.VDW>
-21.4933

>  <SCORE.INTER.norm>
0.228342

>  <SCORE.INTRA>
30.189

>  <SCORE.INTRA.DIHEDRAL>
54.9453

>  <SCORE.INTRA.DIHEDRAL.0>
47.3121

>  <SCORE.INTRA.POLAR>
1.09575

>  <SCORE.INTRA.POLAR.0>
-1.47808

>  <SCORE.INTRA.REPUL>
0

>  <SCORE.INTRA.REPUL.0>
0

>  <SCORE.INTRA.VDW>
-1.00916

>  <SCORE.INTRA.VDW.0>
-2.78316

>  <SCORE.INTRA.norm>
0.603781

>  <SCORE.RESTR>
1.93597

>  <SCORE.RESTR.CAVITY>
1.93597

>  <SCORE.RESTR.norm>
0.0387194

>  <SCORE.SYSTEM>
0

>  <SCORE.SYSTEM.CONST>
0

>  <SCORE.SYSTEM.DIHEDRAL>
0

>  <SCORE.SYSTEM.norm>
0

>  <SCORE.heavy>
50

>  <SCORE.norm>
0.870843

$$$$
