FB1.pdb
  RxDock  10072007573D
librxdock.so/0.1.0
 59 58  0  0  0  0  0  0  0  0999 V2000
    2.8653    1.6405  -11.7852 C   0  0  0  0  0  0
    1.5129    1.3394  -11.1436 C   0  0  0  0  0  0
    1.6395    1.1125   -9.6281 C   0  0  0  0  0  0
    0.3432    0.5725   -8.9740 C   0  0  0  0  0  0
    0.4762    0.1912   -7.4583 C   0  0  0  0  0  0
    0.4851    1.4958   -6.6285 C   0  0  0  0  0  0
   -0.6582   -0.7958   -6.9518 C   0  0  0  0  0  0
   -0.7811   -2.2061   -7.7017 C   0  0  0  0  0  0
   -1.8053   -3.3602   -7.3181 C   0  0  0  0  0  0
   -1.4612   -4.8416   -7.9570 C   0  0  0  0  0  0
   -1.8467   -5.9114   -6.9367 C   0  0  0  0  0  0
   -2.1371   -5.1752   -9.3630 C   0  0  0  0  0  0
   -3.5999   -5.8467   -9.5303 C   0  0  0  0  0  0
   -4.8170   -5.4445   -8.6286 C   0  0  0  0  0  0
   -6.2890   -5.6174   -9.2222 C   0  0  0  0  0  0
   -7.6087   -5.5611   -8.3562 C   0  0  0  0  0  0
   -8.5121   -6.8187   -8.2567 C   0  0  0  0  0  0
   -7.8849   -8.0841   -7.5534 C   0  0  0  0  0  0
   -7.5856   -7.9501   -6.0551 C   0  0  0  0  0  0
   -6.8277   -9.1094   -5.3481 C   0  0  0  0  0  0
   -5.4426   -9.5873   -5.8758 C   0  0  0  0  0  0
   -4.2288   -8.8000   -5.4024 C   0  0  0  0  0  0
   -5.2596  -11.0318   -5.6383 N   0  0  0  0  0  0
   -6.5694   -8.6167   -4.0085 O   0  0  0  0  0  0
   -8.7820   -9.1839   -7.7414 O   0  0  0  0  0  0
   -4.0036   -5.5235  -10.8716 O   0  0  0  0  0  0
   -1.0843   -1.9028   -9.0904 O   0  0  0  0  0  0
   -2.3647   -1.5536   -9.3801 C   0  0  0  0  0  0
   -3.2998   -1.5385   -8.6025 O   0  0  0  0  0  0
   -2.4191   -1.0870  -10.8087 C   0  0  0  0  0  0
   -3.6480   -0.2098  -11.0967 C   0  0  0  0  0  0
   -3.3051    1.0251  -11.9398 C   0  0  0  0  0  0
   -4.5499    1.8026  -12.2991 C   0  0  0  0  0  0
   -4.8893    2.0446  -13.4524 O   0  0  0  0  0  0
   -5.2553    2.2050  -11.2317 O   0  0  0  0  0  0
   -4.6372   -1.1055  -11.8552 C   0  0  0  0  0  0
   -5.6353   -1.5839  -11.3383 O   0  0  0  0  0  0
   -4.2901   -1.3622  -13.1239 O   0  0  0  0  0  0
   -0.6113   -0.9541   -5.4778 O   0  0  0  0  0  0
   -1.3605   -1.9650   -4.8993 C   0  0  0  0  0  0
   -0.9331   -3.0789   -4.6253 O   0  0  0  0  0  0
   -2.8095   -1.5375   -4.6309 C   0  0  0  0  0  0
   -3.5789   -2.3814   -3.5678 C   0  0  0  0  0  0
   -2.8442   -2.7480   -2.2654 C   0  0  0  0  0  0
   -3.1976   -4.1162   -1.7578 C   0  0  0  0  0  0
   -2.6386   -5.1590   -2.0688 O   0  0  0  0  0  0
   -4.2125   -4.0917   -0.8805 O   0  0  0  0  0  0
   -4.9473   -1.8134   -3.1714 C   0  0  0  0  0  0
   -5.9952   -2.2578   -3.5971 O   0  0  0  0  0  0
   -4.9229   -0.8481   -2.2286 O   0  0  0  0  0  0
   -5.3526  -11.5301   -6.5224 H   0  0  0  0  0  0
   -6.0348  -11.3690   -5.0631 H   0  0  0  0  0  0
   -7.4573   -8.5334   -3.6009 H   0  0  0  0  0  0
   -8.6216   -9.5594   -8.6267 H   0  0  0  0  0  0
   -4.7689   -6.0785  -11.0972 H   0  0  0  0  0  0
   -4.8535    2.0004  -10.3656 H   0  0  0  0  0  0
   -3.5033   -0.8551  -13.4444 H   0  0  0  0  0  0
   -4.4116   -5.0248   -0.6546 H   0  0  0  0  0  0
   -5.7927   -0.6354   -1.8231 H   0  0  0  0  0  0
  1  2  1  0  0  0
  2  3  1  0  0  0
  3  4  1  0  0  0
  4  5  1  0  0  0
  5  6  1  0  0  0
  5  7  1  0  0  0
  7  8  1  0  0  0
  7 39  1  0  0  0
  8  9  1  0  0  0
  8 27  1  0  0  0
  9 10  1  0  0  0
 10 11  1  0  0  0
 10 12  1  0  0  0
 12 13  1  0  0  0
 13 14  1  0  0  0
 13 26  1  0  0  0
 14 15  1  0  0  0
 15 16  1  0  0  0
 16 17  1  0  0  0
 17 18  1  0  0  0
 18 19  1  0  0  0
 18 25  1  0  0  0
 19 20  1  0  0  0
 20 21  1  0  0  0
 20 24  1  0  0  0
 21 22  1  0  0  0
 21 23  1  0  0  0
 23 51  1  0  0  0
 23 52  1  0  0  0
 24 53  1  0  0  0
 25 54  1  0  0  0
 26 55  1  0  0  0
 27 28  1  0  0  0
 28 29  2  0  0  0
 28 30  1  0  0  0
 30 31  1  0  0  0
 31 32  1  0  0  0
 31 36  1  0  0  0
 32 33  1  0  0  0
 33 34  2  0  0  0
 33 35  1  0  0  0
 35 56  1  0  0  0
 36 37  2  0  0  0
 36 38  1  0  0  0
 38 57  1  0  0  0
 39 40  1  0  0  0
 40 41  2  0  0  0
 40 42  1  0  0  0
 42 43  1  0  0  0
 43 44  1  0  0  0
 43 48  1  0  0  0
 44 45  1  0  0  0
 45 46  2  0  0  0
 45 47  1  0  0  0
 47 58  1  0  0  0
 48 49  2  0  0  0
 48 50  1  0  0  0
 50 59  1  0  0  0
M  END
>  <AUTHOR>
    GENERATED BY OPEN BABEL 2.4.1

>  <CHROM.1>
-170.29580441,174.08028198,76.23796061,58.62086060,177.45353383,-168.04278890
-163.96997694,-77.77952801,144.28189955,-88.21792713,40.38504455,153.05933059
166.39656783,166.14335504,-116.72064363,64.36698055,66.49426199,-173.50944664
81.94312768,55.89289354,83.91937643,66.09772067,106.19141098,-4.18688210
-159.18369794,136.29618980,175.34935851,104.39856098,-122.22021455,3.81089608
-7.15105644,94.74716367,-159.64182784,43.90125421,-143.79984045,101.98406562
88.31745020,176.15274183,-166.15070675,-3.48799480,-3.17520954,-7.54116769
-0.85442786,0.86723470,1.98226633

>  <COMPND>
    UNNAMED

>  <MASTER>
        0    0    0    0    0    0    0    0  109    0  109    0

>  <Name>
FB1.pdb

>  <RI>
0

>  <Rbt.Current_Directory>
/cluster/tossine/FB1_39T3/p3/1_clust02

>  <Rbt.Executable>
rbdock/0.1.0

>  <Rbt.Library>
librxdock.so/0.1.0

>  <Rbt.Parameter_File>
/cluster/rxdock/data/scripts/dock.prm

>  <Rbt.Receptor>
rx_1.prm

>  <SCORE>
22.5298

>  <SCORE.INTER>
1.28314

>  <SCORE.INTER.CONST>
1

>  <SCORE.INTER.POLAR>
-1.55879

>  <SCORE.INTER.REPUL>
1.11794

>  <SCORE.INTER.ROT>
32

>  <SCORE.INTER.VDW>
-36.4067

>  <SCORE.INTER.norm>
0.0256627

>  <SCORE.INTRA>
20.3426

>  <SCORE.INTRA.DIHEDRAL>
25.8811

>  <SCORE.INTRA.DIHEDRAL.0>
47.3121

>  <SCORE.INTRA.POLAR>
1.47808

>  <SCORE.INTRA.POLAR.0>
-1.47808

>  <SCORE.INTRA.REPUL>
0

>  <SCORE.INTRA.REPUL.0>
0

>  <SCORE.INTRA.VDW>
2.37662

>  <SCORE.INTRA.VDW.0>
-2.78316

>  <SCORE.INTRA.norm>
0.406852

>  <SCORE.RESTR>
0.904075

>  <SCORE.RESTR.CAVITY>
0.904075

>  <SCORE.RESTR.norm>
0.0180815

>  <SCORE.SYSTEM>
0

>  <SCORE.SYSTEM.CONST>
0

>  <SCORE.SYSTEM.DIHEDRAL>
0

>  <SCORE.SYSTEM.norm>
0

>  <SCORE.heavy>
50

>  <SCORE.norm>
0.450597

$$$$
