FB1.pdb
  RxDock  10072008073D
librxdock.so/0.1.0
 59 58  0  0  0  0  0  0  0  0999 V2000
   -8.6526   -1.7456   -9.9245 C   0  0  0  0  0  0
   -7.9052   -3.0195  -10.3116 C   0  0  0  0  0  0
   -7.0649   -2.8223  -11.5841 C   0  0  0  0  0  0
   -6.4914   -4.1427  -12.1563 C   0  0  0  0  0  0
   -4.9410   -4.1424  -12.3940 C   0  0  0  0  0  0
   -4.6193   -3.1091  -13.4983 C   0  0  0  0  0  0
   -4.0991   -3.8505  -11.0811 C   0  0  0  0  0  0
   -3.7530   -2.3183  -10.7666 C   0  0  0  0  0  0
   -4.7129   -1.0848  -11.0590 C   0  0  0  0  0  0
   -4.0382    0.4003  -10.8126 C   0  0  0  0  0  0
   -2.6425    0.4082  -11.4340 C   0  0  0  0  0  0
   -4.8711    1.6492  -11.3522 C   0  0  0  0  0  0
   -4.6575    2.3217  -12.8085 C   0  0  0  0  0  0
   -3.2672    2.8633  -13.2880 C   0  0  0  0  0  0
   -2.3222    3.5769  -12.2172 C   0  0  0  0  0  0
   -2.6892    4.9126  -11.4584 C   0  0  0  0  0  0
   -1.6428    6.0549  -11.3713 C   0  0  0  0  0  0
   -0.6536    6.0133  -10.1429 C   0  0  0  0  0  0
    0.6592    6.7906  -10.3011 C   0  0  0  0  0  0
    1.7781    6.5710   -9.2438 C   0  0  0  0  0  0
    3.1255    7.3456   -9.3449 C   0  0  0  0  0  0
    3.9976    7.3537   -8.0972 C   0  0  0  0  0  0
    3.8962    6.9076  -10.5241 N   0  0  0  0  0  0
    1.1897    7.0034   -7.9906 O   0  0  0  0  0  0
   -1.3482    6.5220   -8.9990 O   0  0  0  0  0  0
   -5.0015    1.2883  -13.7468 O   0  0  0  0  0  0
   -3.4974   -2.2444   -9.3377 O   0  0  0  0  0  0
   -2.2504   -2.5798   -8.9160 C   0  0  0  0  0  0
   -1.3024   -2.8600   -9.6247 O   0  0  0  0  0  0
   -2.2031   -2.4490   -7.4187 C   0  0  0  0  0  0
   -0.7769   -2.2280   -6.8901 C   0  0  0  0  0  0
   -0.4109   -0.7417   -6.7876 C   0  0  0  0  0  0
    0.0904   -0.2112   -8.1107 C   0  0  0  0  0  0
    0.4116   -0.9291   -9.0515 O   0  0  0  0  0  0
    0.1502    1.1277   -8.1614 O   0  0  0  0  0  0
   -0.7373   -2.8759   -5.4992 C   0  0  0  0  0  0
   -1.6165   -3.6144   -5.0822 O   0  0  0  0  0  0
    0.3211   -2.5253   -4.7557 O   0  0  0  0  0  0
   -4.6849   -4.5390   -9.9052 O   0  0  0  0  0  0
   -4.3915   -5.8787   -9.7123 C   0  0  0  0  0  0
   -3.7931   -6.5832  -10.5148 O   0  0  0  0  0  0
   -4.9027   -6.3998   -8.3626 C   0  0  0  0  0  0
   -5.9828   -7.5234   -8.4354 C   0  0  0  0  0  0
   -7.3185   -7.1988   -9.1290 C   0  0  0  0  0  0
   -8.2704   -6.4454   -8.2454 C   0  0  0  0  0  0
   -8.7486   -5.3454   -8.4860 O   0  0  0  0  0  0
   -8.5786   -7.1220   -7.1285 O   0  0  0  0  0  0
   -5.4826   -8.8522   -9.0153 C   0  0  0  0  0  0
   -5.5480   -9.9034   -8.4091 O   0  0  0  0  0  0
   -5.0577   -8.8025  -10.2952 O   0  0  0  0  0  0
    3.5058    7.3427  -11.3588 H   0  0  0  0  0  0
    3.7488    5.9045  -10.6565 H   0  0  0  0  0  0
    1.0532    7.9680   -8.1019 H   0  0  0  0  0  0
   -1.4923    7.4772   -9.1306 H   0  0  0  0  0  0
   -4.2963    0.6197  -13.7297 H   0  0  0  0  0  0
   -0.1604    1.5893   -7.3590 H   0  0  0  0  0  0
    0.3077   -2.8777   -3.8314 H   0  0  0  0  0  0
   -8.1883   -8.0163   -7.2246 H   0  0  0  0  0  0
   -4.7408   -9.6560  -10.6657 H   0  0  0  0  0  0
  1  2  1  0  0  0
  2  3  1  0  0  0
  3  4  1  0  0  0
  4  5  1  0  0  0
  5  6  1  0  0  0
  5  7  1  0  0  0
  7  8  1  0  0  0
  7 39  1  0  0  0
  8  9  1  0  0  0
  8 27  1  0  0  0
  9 10  1  0  0  0
 10 11  1  0  0  0
 10 12  1  0  0  0
 12 13  1  0  0  0
 13 14  1  0  0  0
 13 26  1  0  0  0
 14 15  1  0  0  0
 15 16  1  0  0  0
 16 17  1  0  0  0
 17 18  1  0  0  0
 18 19  1  0  0  0
 18 25  1  0  0  0
 19 20  1  0  0  0
 20 21  1  0  0  0
 20 24  1  0  0  0
 21 22  1  0  0  0
 21 23  1  0  0  0
 23 51  1  0  0  0
 23 52  1  0  0  0
 24 53  1  0  0  0
 25 54  1  0  0  0
 26 55  1  0  0  0
 27 28  1  0  0  0
 28 29  2  0  0  0
 28 30  1  0  0  0
 30 31  1  0  0  0
 31 32  1  0  0  0
 31 36  1  0  0  0
 32 33  1  0  0  0
 33 34  2  0  0  0
 33 35  1  0  0  0
 35 56  1  0  0  0
 36 37  2  0  0  0
 36 38  1  0  0  0
 38 57  1  0  0  0
 39 40  1  0  0  0
 40 41  2  0  0  0
 40 42  1  0  0  0
 42 43  1  0  0  0
 43 44  1  0  0  0
 43 48  1  0  0  0
 44 45  1  0  0  0
 45 46  2  0  0  0
 45 47  1  0  0  0
 47 58  1  0  0  0
 48 49  2  0  0  0
 48 50  1  0  0  0
 50 59  1  0  0  0
M  END
>  <AUTHOR>
    GENERATED BY OPEN BABEL 2.4.1

>  <CHROM.1>
-169.78087973,-126.74617021,-65.18645649,-90.22122524,35.92262965,81.44119898
-172.72070931,83.02878340,45.00079313,-93.58290747,-56.10589976,-36.93664534
-71.90538213,-63.23138307,-132.78838852,-88.94821242,158.56898515,-168.76186823
-69.27730489,-179.29586334,164.32740830,-66.05406869,78.05833585,4.67603885
-156.22654875,90.73503263,-84.58971184,12.16467623,-13.49459326,-1.87099317
174.85574530,-7.94991203,117.00171973,-61.22640641,-80.54786609,122.56932365
121.38524351,-7.54384175,-179.77306327,-3.08548984,-1.08395246,-9.64227580
2.23037092,0.65105590,2.66190415

>  <COMPND>
    UNNAMED

>  <MASTER>
        0    0    0    0    0    0    0    0  109    0  109    0

>  <Name>
FB1.pdb

>  <RI>
0

>  <Rbt.Current_Directory>
/cluster/tossine/FB1_39T3/p3/1_clust02

>  <Rbt.Executable>
rbdock/0.1.0

>  <Rbt.Library>
librxdock.so/0.1.0

>  <Rbt.Parameter_File>
/cluster/rxdock/data/scripts/dock.prm

>  <Rbt.Receptor>
rx_1.prm

>  <SCORE>
18.8037

>  <SCORE.INTER>
6.27652

>  <SCORE.INTER.CONST>
1

>  <SCORE.INTER.POLAR>
-2.08195

>  <SCORE.INTER.REPUL>
1.10968

>  <SCORE.INTER.ROT>
32

>  <SCORE.INTER.VDW>
-29.5932

>  <SCORE.INTER.norm>
0.12553

>  <SCORE.INTRA>
11.6002

>  <SCORE.INTRA.DIHEDRAL>
5.60609

>  <SCORE.INTRA.DIHEDRAL.0>
47.3121

>  <SCORE.INTRA.POLAR>
1.47808

>  <SCORE.INTRA.POLAR.0>
-1.47808

>  <SCORE.INTRA.REPUL>
0

>  <SCORE.INTRA.REPUL.0>
0

>  <SCORE.INTRA.VDW>
3.77172

>  <SCORE.INTRA.VDW.0>
-2.78316

>  <SCORE.INTRA.norm>
0.232005

>  <SCORE.RESTR>
0.926928

>  <SCORE.RESTR.CAVITY>
0.926928

>  <SCORE.RESTR.norm>
0.0185386

>  <SCORE.SYSTEM>
0

>  <SCORE.SYSTEM.CONST>
0

>  <SCORE.SYSTEM.DIHEDRAL>
0

>  <SCORE.SYSTEM.norm>
0

>  <SCORE.heavy>
50

>  <SCORE.norm>
0.376074

$$$$
