FB1.pdb
  RxDock  10072009143D
librxdock.so/0.1.0
 59 58  0  0  0  0  0  0  0  0999 V2000
    6.6956    3.6486   -4.3781 C   0  0  0  0  0  0
    5.6404    3.9448   -5.4412 C   0  0  0  0  0  0
    4.3623    3.1190   -5.2205 C   0  0  0  0  0  0
    4.5863    1.5908   -5.3388 C   0  0  0  0  0  0
    3.2751    0.7306   -5.3719 C   0  0  0  0  0  0
    2.4097    1.1173   -4.1504 C   0  0  0  0  0  0
    2.4527    0.8813   -6.7206 C   0  0  0  0  0  0
    1.3230   -0.2174   -7.0084 C   0  0  0  0  0  0
   -0.1555   -0.1843   -6.4244 C   0  0  0  0  0  0
   -0.6013   -1.5247   -5.5723 C   0  0  0  0  0  0
    0.4641   -1.8026   -4.5131 C   0  0  0  0  0  0
   -2.0395   -1.4742   -4.8840 C   0  0  0  0  0  0
   -2.9321   -2.7819   -4.5497 C   0  0  0  0  0  0
   -2.5561   -3.7858   -3.4065 C   0  0  0  0  0  0
   -2.8268   -3.3484   -1.8950 C   0  0  0  0  0  0
   -3.9613   -3.9604   -0.9824 C   0  0  0  0  0  0
   -4.0391   -5.4977   -0.7868 C   0  0  0  0  0  0
   -4.5158   -6.0056    0.6288 C   0  0  0  0  0  0
   -3.8875   -7.3124    1.1287 C   0  0  0  0  0  0
   -3.9230   -7.6113    2.6543 C   0  0  0  0  0  0
   -5.1899   -7.2786    3.4966 C   0  0  0  0  0  0
   -6.5083   -7.8474    2.9909 C   0  0  0  0  0  0
   -4.9802   -7.6165    4.9173 N   0  0  0  0  0  0
   -3.7756   -9.0510    2.7504 O   0  0  0  0  0  0
   -4.2412   -4.9746    1.5834 O   0  0  0  0  0  0
   -4.2231   -2.2649   -4.1854 O   0  0  0  0  0  0
    1.1400   -0.2441   -8.4500 O   0  0  0  0  0  0
    1.7306   -1.2623   -9.1280 C   0  0  0  0  0  0
    2.6150   -1.1574   -9.9565 O   0  0  0  0  0  0
    1.1792   -2.5620   -8.6102 C   0  0  0  0  0  0
   -0.1361   -2.9610   -9.2982 C   0  0  0  0  0  0
   -1.3129   -2.0700   -8.8803 C   0  0  0  0  0  0
   -2.6178   -2.5968   -9.4309 C   0  0  0  0  0  0
   -2.8019   -3.7709   -9.7327 O   0  0  0  0  0  0
   -3.5634   -1.6541   -9.5580 O   0  0  0  0  0  0
    0.1176   -2.8233  -10.8057 C   0  0  0  0  0  0
    0.6245   -3.7067  -11.4802 O   0  0  0  0  0  0
   -0.2182   -1.6306  -11.3163 O   0  0  0  0  0  0
    1.9363    2.2624   -6.8813 O   0  0  0  0  0  0
    1.6113    2.7006   -8.1542 C   0  0  0  0  0  0
    1.2585    1.9721   -9.0725 O   0  0  0  0  0  0
    1.7406    4.2227   -8.2985 C   0  0  0  0  0  0
    0.6872    4.9072   -9.2239 C   0  0  0  0  0  0
    0.9362    6.3663   -9.6476 C   0  0  0  0  0  0
    0.0418    7.3433   -8.9405 C   0  0  0  0  0  0
    0.2949    7.9076   -7.8850 O   0  0  0  0  0  0
   -1.1015    7.5671   -9.6061 O   0  0  0  0  0  0
    0.3463    4.1186  -10.4944 C   0  0  0  0  0  0
    1.1444    3.3945  -11.0561 O   0  0  0  0  0  0
   -0.9398    4.1946  -10.8959 O   0  0  0  0  0  0
   -4.8172   -8.6190    5.0016 H   0  0  0  0  0  0
   -5.8513   -7.4476    5.4253 H   0  0  0  0  0  0
   -4.5183   -9.4109    2.2209 H   0  0  0  0  0  0
   -3.3464   -4.6291    1.4091 H   0  0  0  0  0  0
   -4.5053   -1.6451   -4.8787 H   0  0  0  0  0  0
   -3.3550   -0.7961   -9.1412 H   0  0  0  0  0  0
   -1.1725   -1.5440  -11.5625 H   0  0  0  0  0  0
   -1.4910    8.3841   -9.2294 H   0  0  0  0  0  0
   -1.5128    4.7860  -10.3591 H   0  0  0  0  0  0
  1  2  1  0  0  0
  2  3  1  0  0  0
  3  4  1  0  0  0
  4  5  1  0  0  0
  5  6  1  0  0  0
  5  7  1  0  0  0
  7  8  1  0  0  0
  7 39  1  0  0  0
  8  9  1  0  0  0
  8 27  1  0  0  0
  9 10  1  0  0  0
 10 11  1  0  0  0
 10 12  1  0  0  0
 12 13  1  0  0  0
 13 14  1  0  0  0
 13 26  1  0  0  0
 14 15  1  0  0  0
 15 16  1  0  0  0
 16 17  1  0  0  0
 17 18  1  0  0  0
 18 19  1  0  0  0
 18 25  1  0  0  0
 19 20  1  0  0  0
 20 21  1  0  0  0
 20 24  1  0  0  0
 21 22  1  0  0  0
 21 23  1  0  0  0
 23 51  1  0  0  0
 23 52  1  0  0  0
 24 53  1  0  0  0
 25 54  1  0  0  0
 26 55  1  0  0  0
 27 28  1  0  0  0
 28 29  2  0  0  0
 28 30  1  0  0  0
 30 31  1  0  0  0
 31 32  1  0  0  0
 31 36  1  0  0  0
 32 33  1  0  0  0
 33 34  2  0  0  0
 33 35  1  0  0  0
 35 56  1  0  0  0
 36 37  2  0  0  0
 36 38  1  0  0  0
 38 57  1  0  0  0
 39 40  1  0  0  0
 40 41  2  0  0  0
 40 42  1  0  0  0
 42 43  1  0  0  0
 43 44  1  0  0  0
 43 48  1  0  0  0
 44 45  1  0  0  0
 45 46  2  0  0  0
 45 47  1  0  0  0
 47 58  1  0  0  0
 48 49  2  0  0  0
 48 50  1  0  0  0
 50 59  1  0  0  0
M  END
>  <AUTHOR>
    GENERATED BY OPEN BABEL 2.4.1

>  <CHROM.1>
-63.07165575,-169.73751872,-52.79612912,164.74802382,82.99714130,158.11557545
-123.70567129,101.47918389,51.70199903,153.51718226,71.43575529,75.46077049
50.69396602,108.46754494,54.18905774,145.30086043,-146.22796556,159.43103209
-44.17813497,40.10874122,53.34167503,-57.30379690,-62.16290456,-115.90657142
85.04869835,-71.23670058,-172.61757975,85.00033078,24.41023730,-10.31072503
-84.58465678,27.21387846,-144.37727979,-167.25369060,-106.05438902,-30.70191994
90.40929782,-163.83563358,3.10336432,-0.53555826,-0.78698345,-5.74403506
-0.78940225,1.01076142,1.64147560

>  <COMPND>
    UNNAMED

>  <MASTER>
        0    0    0    0    0    0    0    0  109    0  109    0

>  <Name>
FB1.pdb

>  <RI>
0

>  <Rbt.Current_Directory>
/cluster/tossine/FB1_39T3/p3/1_clust02

>  <Rbt.Executable>
rbdock/0.1.0

>  <Rbt.Library>
librxdock.so/0.1.0

>  <Rbt.Parameter_File>
/cluster/rxdock/data/scripts/dock.prm

>  <Rbt.Receptor>
rx_3.prm

>  <SCORE>
154.195

>  <SCORE.INTER>
107.02

>  <SCORE.INTER.CONST>
1

>  <SCORE.INTER.POLAR>
-1.34644

>  <SCORE.INTER.REPUL>
1.56029

>  <SCORE.INTER.ROT>
32

>  <SCORE.INTER.VDW>
66.3967

>  <SCORE.INTER.norm>
2.1404

>  <SCORE.INTRA>
39.2656

>  <SCORE.INTRA.DIHEDRAL>
58.1756

>  <SCORE.INTRA.DIHEDRAL.0>
47.3121

>  <SCORE.INTRA.POLAR>
1.47808

>  <SCORE.INTRA.POLAR.0>
-1.47808

>  <SCORE.INTRA.REPUL>
0

>  <SCORE.INTRA.REPUL.0>
0

>  <SCORE.INTRA.VDW>
5.15232

>  <SCORE.INTRA.VDW.0>
-2.78316

>  <SCORE.INTRA.norm>
0.785311

>  <SCORE.RESTR>
7.90955

>  <SCORE.RESTR.CAVITY>
7.90955

>  <SCORE.RESTR.norm>
0.158191

>  <SCORE.SYSTEM>
0

>  <SCORE.SYSTEM.CONST>
0

>  <SCORE.SYSTEM.DIHEDRAL>
0

>  <SCORE.SYSTEM.norm>
0

>  <SCORE.heavy>
50

>  <SCORE.norm>
3.08391

$$$$
