FB1.pdb
  RxDock  10072007123D
librxdock.so/0.1.0
 59 58  0  0  0  0  0  0  0  0999 V2000
    4.1459    1.3324   -8.5393 C   0  0  0  0  0  0
    4.0205   -0.1870   -8.4557 C   0  0  0  0  0  0
    3.5369   -0.7924   -9.7837 C   0  0  0  0  0  0
    2.7413   -2.1100   -9.6084 C   0  0  0  0  0  0
    1.3064   -1.9401   -8.9978 C   0  0  0  0  0  0
    1.4511   -1.7003   -7.4772 C   0  0  0  0  0  0
    0.4623   -0.7810   -9.6773 C   0  0  0  0  0  0
   -1.1020   -0.7270   -9.3365 C   0  0  0  0  0  0
   -2.2659   -0.5505  -10.4054 C   0  0  0  0  0  0
   -2.7744   -1.9463  -11.1227 C   0  0  0  0  0  0
   -1.5457   -2.7555  -11.5348 C   0  0  0  0  0  0
   -3.7543   -2.8634  -10.2604 C   0  0  0  0  0  0
   -3.9967   -4.4399  -10.5334 C   0  0  0  0  0  0
   -3.2038   -5.5562   -9.7712 C   0  0  0  0  0  0
   -2.5377   -5.1880   -8.3676 C   0  0  0  0  0  0
   -3.2269   -5.4275   -6.9668 C   0  0  0  0  0  0
   -2.6692   -6.5206   -6.0173 C   0  0  0  0  0  0
   -3.3822   -7.9272   -6.0648 C   0  0  0  0  0  0
   -4.0139   -8.4133   -4.7544 C   0  0  0  0  0  0
   -4.5477   -9.8725   -4.6900 C   0  0  0  0  0  0
   -6.0632  -10.1703   -4.8896 C   0  0  0  0  0  0
   -6.5689  -11.5010   -4.3501 C   0  0  0  0  0  0
   -6.8882   -9.0524   -4.3936 N   0  0  0  0  0  0
   -3.8836  -10.5555   -5.7838 O   0  0  0  0  0  0
   -4.4019   -7.8718   -7.0682 O   0  0  0  0  0  0
   -5.3766   -4.6649  -10.1990 O   0  0  0  0  0  0
   -1.4154   -1.9782   -8.6667 O   0  0  0  0  0  0
   -2.2757   -1.9174   -7.6171 C   0  0  0  0  0  0
   -3.3905   -1.4313   -7.6279 O   0  0  0  0  0  0
   -1.6602   -2.6460   -6.4545 C   0  0  0  0  0  0
   -2.1590   -2.1219   -5.0984 C   0  0  0  0  0  0
   -3.4258   -2.8421   -4.6188 C   0  0  0  0  0  0
   -4.0738   -2.1003   -3.4729 C   0  0  0  0  0  0
   -4.0413   -2.4872   -2.3097 O   0  0  0  0  0  0
   -4.6908   -0.9703   -3.8486 O   0  0  0  0  0  0
   -1.0121   -2.3598   -4.1064 C   0  0  0  0  0  0
    0.0309   -2.9165   -4.4139 O   0  0  0  0  0  0
   -1.2679   -1.9494   -2.8566 O   0  0  0  0  0  0
    1.1160    0.5373   -9.4910 O   0  0  0  0  0  0
    1.4323    1.2809  -10.6158 C   0  0  0  0  0  0
    1.5339    0.8239  -11.7468 O   0  0  0  0  0  0
    1.6458    2.7657  -10.2930 C   0  0  0  0  0  0
    0.8588    3.3110   -9.0610 C   0  0  0  0  0  0
    1.4089    3.0017   -7.6566 C   0  0  0  0  0  0
    0.3900    2.3683   -6.7539 C   0  0  0  0  0  0
    0.0248    2.8066   -5.6717 O   0  0  0  0  0  0
   -0.1211    1.2397   -7.2691 O   0  0  0  0  0  0
    0.5605    4.8146   -9.1095 C   0  0  0  0  0  0
    0.7841    5.5625   -8.1782 O   0  0  0  0  0  0
    0.1285    5.2814  -10.2998 O   0  0  0  0  0  0
   -6.5617   -8.1838   -4.8148 H   0  0  0  0  0  0
   -6.7176   -8.9399   -3.3918 H   0  0  0  0  0  0
   -3.3977  -11.2919   -5.3561 H   0  0  0  0  0  0
   -5.0711   -7.2213   -6.7863 H   0  0  0  0  0  0
   -5.5365   -4.2925   -9.3156 H   0  0  0  0  0  0
   -4.5164   -0.6857   -4.7663 H   0  0  0  0  0  0
   -2.0488   -1.3475   -2.7743 H   0  0  0  0  0  0
    0.4634    0.9798   -8.0121 H   0  0  0  0  0  0
   -0.2977    6.1668  -10.2737 H   0  0  0  0  0  0
  1  2  1  0  0  0
  2  3  1  0  0  0
  3  4  1  0  0  0
  4  5  1  0  0  0
  5  6  1  0  0  0
  5  7  1  0  0  0
  7  8  1  0  0  0
  7 39  1  0  0  0
  8  9  1  0  0  0
  8 27  1  0  0  0
  9 10  1  0  0  0
 10 11  1  0  0  0
 10 12  1  0  0  0
 12 13  1  0  0  0
 13 14  1  0  0  0
 13 26  1  0  0  0
 14 15  1  0  0  0
 15 16  1  0  0  0
 16 17  1  0  0  0
 17 18  1  0  0  0
 18 19  1  0  0  0
 18 25  1  0  0  0
 19 20  1  0  0  0
 20 21  1  0  0  0
 20 24  1  0  0  0
 21 22  1  0  0  0
 21 23  1  0  0  0
 23 51  1  0  0  0
 23 52  1  0  0  0
 24 53  1  0  0  0
 25 54  1  0  0  0
 26 55  1  0  0  0
 27 28  1  0  0  0
 28 29  2  0  0  0
 28 30  1  0  0  0
 30 31  1  0  0  0
 31 32  1  0  0  0
 31 36  1  0  0  0
 32 33  1  0  0  0
 33 34  2  0  0  0
 33 35  1  0  0  0
 35 56  1  0  0  0
 36 37  2  0  0  0
 36 38  1  0  0  0
 38 57  1  0  0  0
 39 40  1  0  0  0
 40 41  2  0  0  0
 40 42  1  0  0  0
 42 43  1  0  0  0
 43 44  1  0  0  0
 43 48  1  0  0  0
 44 45  1  0  0  0
 45 46  2  0  0  0
 45 47  1  0  0  0
 47 58  1  0  0  0
 48 49  2  0  0  0
 48 50  1  0  0  0
 50 59  1  0  0  0
M  END
>  <AUTHOR>
    GENERATED BY OPEN BABEL 2.4.1

>  <CHROM.1>
-151.28426349,71.83337870,-76.49336345,167.79324143,-133.04368205,123.00048628
85.04201736,140.21407269,-45.61416122,-159.62502782,95.00442471,21.83815734
-50.74421399,94.07742111,110.18347130,-96.29391619,-119.91936235,-171.36629121
-64.45317013,-98.41898545,-159.56845335,121.48769685,52.40135067,54.30642420
153.07386241,88.91257822,-166.43261713,-2.82070483,-106.69799003,-10.27646001
-14.82798260,-19.46167214,-28.23622317,78.63659295,-126.73616703,-131.06077397
-122.37978451,14.19324706,163.54485907,-1.51585633,-2.29160683,-7.49469835
-0.15854107,-1.05894895,-2.08887972

>  <COMPND>
    UNNAMED

>  <MASTER>
        0    0    0    0    0    0    0    0  109    0  109    0

>  <Name>
FB1.pdb

>  <RI>
0

>  <Rbt.Current_Directory>
/cluster/tossine/FB1_39T3/p3/1_clust02

>  <Rbt.Executable>
rbdock/0.1.0

>  <Rbt.Library>
librxdock.so/0.1.0

>  <Rbt.Parameter_File>
/cluster/rxdock/data/scripts/dock.prm

>  <Rbt.Receptor>
rx_0.prm

>  <SCORE>
61.2069

>  <SCORE.INTER>
23.014

>  <SCORE.INTER.CONST>
1

>  <SCORE.INTER.POLAR>
-1.88471

>  <SCORE.INTER.REPUL>
2.08099

>  <SCORE.INTER.ROT>
32

>  <SCORE.INTER.VDW>
-18.3829

>  <SCORE.INTER.norm>
0.46028

>  <SCORE.INTRA>
33.8041

>  <SCORE.INTRA.DIHEDRAL>
59.339

>  <SCORE.INTRA.DIHEDRAL.0>
47.3121

>  <SCORE.INTRA.POLAR>
0.478077

>  <SCORE.INTRA.POLAR.0>
-1.47808

>  <SCORE.INTRA.REPUL>
0

>  <SCORE.INTRA.REPUL.0>
0

>  <SCORE.INTRA.VDW>
2.50919

>  <SCORE.INTRA.VDW.0>
-2.78316

>  <SCORE.INTRA.norm>
0.676083

>  <SCORE.RESTR>
4.38879

>  <SCORE.RESTR.CAVITY>
4.38879

>  <SCORE.RESTR.norm>
0.0877758

>  <SCORE.SYSTEM>
0

>  <SCORE.SYSTEM.CONST>
0

>  <SCORE.SYSTEM.DIHEDRAL>
0

>  <SCORE.SYSTEM.norm>
0

>  <SCORE.heavy>
50

>  <SCORE.norm>
1.22414

$$$$
