FB1.pdb
  RxDock  10072009443D
librxdock.so/0.1.0
 59 58  0  0  0  0  0  0  0  0999 V2000
  -14.8935   -0.4843   -2.9940 C   0  0  0  0  0  0
  -13.7582   -1.4634   -2.7046 C   0  0  0  0  0  0
  -14.1024   -2.4063   -1.5398 C   0  0  0  0  0  0
  -12.8629   -3.0933   -0.9144 C   0  0  0  0  0  0
  -13.1854   -4.1786    0.1712 C   0  0  0  0  0  0
  -12.5513   -5.5160   -0.2759 C   0  0  0  0  0  0
  -12.7008   -3.7799    1.6286 C   0  0  0  0  0  0
  -12.1254   -4.9577    2.5495 C   0  0  0  0  0  0
  -10.9223   -5.9208    2.1578 C   0  0  0  0  0  0
  -10.3117   -6.8181    3.4002 C   0  0  0  0  0  0
  -11.4753   -7.4703    4.1451 C   0  0  0  0  0  0
   -9.2398   -7.9309    3.0032 C   0  0  0  0  0  0
   -7.6778   -7.6237    2.7127 C   0  0  0  0  0  0
   -6.7282   -7.0036    3.7944 C   0  0  0  0  0  0
   -6.8417   -5.4396    4.0947 C   0  0  0  0  0  0
   -5.7583   -4.6057    4.8856 C   0  0  0  0  0  0
   -4.8846   -5.3093    5.9575 C   0  0  0  0  0  0
   -5.6159   -5.7538    7.2830 C   0  0  0  0  0  0
   -5.0612   -7.0031    7.9787 C   0  0  0  0  0  0
   -3.6256   -6.9399    8.5731 C   0  0  0  0  0  0
   -3.3262   -6.0668    9.8275 C   0  0  0  0  0  0
   -3.9588   -6.5207   11.1356 C   0  0  0  0  0  0
   -1.8746   -5.8581    9.9882 N   0  0  0  0  0  0
   -3.3382   -8.3005    8.9855 O   0  0  0  0  0  0
   -5.5640   -4.6593    8.2045 O   0  0  0  0  0  0
   -7.1022   -8.9026    2.3970 O   0  0  0  0  0  0
  -11.6961   -4.3316    3.7890 O   0  0  0  0  0  0
  -10.4539   -3.7821    3.8045 C   0  0  0  0  0  0
   -9.7887   -3.4798    2.8321 O   0  0  0  0  0  0
  -10.0709   -3.5116    5.2334 C   0  0  0  0  0  0
   -9.7642   -2.0278    5.4916 C   0  0  0  0  0  0
  -10.1272   -1.5910    6.9167 C   0  0  0  0  0  0
  -11.5044   -2.0789    7.3022 C   0  0  0  0  0  0
  -12.3857   -2.3347    6.4888 O   0  0  0  0  0  0
  -11.6740   -2.2088    8.6263 O   0  0  0  0  0  0
   -8.2559   -1.8623    5.2596 C   0  0  0  0  0  0
   -7.5484   -1.1499    5.9555 O   0  0  0  0  0  0
   -7.7837   -2.5273    4.1963 O   0  0  0  0  0  0
  -11.7881   -2.6115    1.5885 O   0  0  0  0  0  0
  -12.0839   -1.5165    2.3831 C   0  0  0  0  0  0
  -13.0092   -1.4662    3.1830 O   0  0  0  0  0  0
  -11.1138   -0.3499    2.1544 C   0  0  0  0  0  0
  -11.6471    0.8081    1.2550 C   0  0  0  0  0  0
  -10.6384    1.5541    0.3625 C   0  0  0  0  0  0
  -11.2209    2.7765   -0.2862 C   0  0  0  0  0  0
  -11.3204    3.8803    0.2317 O   0  0  0  0  0  0
  -11.6236    2.5467   -1.5453 O   0  0  0  0  0  0
  -12.8415    0.4301    0.3703 C   0  0  0  0  0  0
  -12.7539    0.2926   -0.8339 O   0  0  0  0  0  0
  -13.9858    0.1522    1.0296 O   0  0  0  0  0  0
   -1.7173   -5.0148   10.5384 H   0  0  0  0  0  0
   -1.4705   -5.6537    9.0715 H   0  0  0  0  0  0
   -2.3592   -8.3529    8.9980 H   0  0  0  0  0  0
   -4.6274   -4.4411    8.3652 H   0  0  0  0  0  0
   -7.3412   -9.5232    3.1057 H   0  0  0  0  0  0
  -12.5804   -2.4356    8.9099 H   0  0  0  0  0  0
   -6.8148   -2.4083    4.0354 H   0  0  0  0  0  0
  -11.9024    3.4115   -1.9137 H   0  0  0  0  0  0
  -14.7647   -0.0323    0.4590 H   0  0  0  0  0  0
  1  2  1  0  0  0
  2  3  1  0  0  0
  3  4  1  0  0  0
  4  5  1  0  0  0
  5  6  1  0  0  0
  5  7  1  0  0  0
  7  8  1  0  0  0
  7 39  1  0  0  0
  8  9  1  0  0  0
  8 27  1  0  0  0
  9 10  1  0  0  0
 10 11  1  0  0  0
 10 12  1  0  0  0
 12 13  1  0  0  0
 13 14  1  0  0  0
 13 26  1  0  0  0
 14 15  1  0  0  0
 15 16  1  0  0  0
 16 17  1  0  0  0
 17 18  1  0  0  0
 18 19  1  0  0  0
 18 25  1  0  0  0
 19 20  1  0  0  0
 20 21  1  0  0  0
 20 24  1  0  0  0
 21 22  1  0  0  0
 21 23  1  0  0  0
 23 51  1  0  0  0
 23 52  1  0  0  0
 24 53  1  0  0  0
 25 54  1  0  0  0
 26 55  1  0  0  0
 27 28  1  0  0  0
 28 29  2  0  0  0
 28 30  1  0  0  0
 30 31  1  0  0  0
 31 32  1  0  0  0
 31 36  1  0  0  0
 32 33  1  0  0  0
 33 34  2  0  0  0
 33 35  1  0  0  0
 35 56  1  0  0  0
 36 37  2  0  0  0
 36 38  1  0  0  0
 38 57  1  0  0  0
 39 40  1  0  0  0
 40 41  2  0  0  0
 40 42  1  0  0  0
 42 43  1  0  0  0
 43 44  1  0  0  0
 43 48  1  0  0  0
 44 45  1  0  0  0
 45 46  2  0  0  0
 45 47  1  0  0  0
 47 58  1  0  0  0
 48 49  2  0  0  0
 48 50  1  0  0  0
 50 59  1  0  0  0
M  END
>  <AUTHOR>
    GENERATED BY OPEN BABEL 2.4.1

>  <CHROM.1>
-161.58825976,-173.66408159,122.50769773,-142.89047278,55.97102984,126.56263293
167.02765838,-84.01042318,48.20132132,80.05736624,60.76882471,-76.71894055
-51.74295545,-165.07229511,-28.61178495,-69.98693548,149.12743659,65.43226379
-58.95586945,69.72771177,67.64006283,156.82653915,156.84248298,18.37544776
-121.17291714,148.40157496,-46.83797844,-140.79665229,-24.85349874,174.09930309
178.92353023,4.42384333,101.34855822,-146.75014147,-170.89762457,-108.05828579
83.13733523,-174.47203429,176.17355546,-9.66738682,-3.36109789,3.62897807
2.86831315,-0.87517769,0.27936657

>  <COMPND>
    UNNAMED

>  <MASTER>
        0    0    0    0    0    0    0    0  109    0  109    0

>  <Name>
FB1.pdb

>  <RI>
0

>  <Rbt.Current_Directory>
/cluster/tossine/FB1_39T3/p3/1_clust02

>  <Rbt.Executable>
rbdock/0.1.0

>  <Rbt.Library>
librxdock.so/0.1.0

>  <Rbt.Parameter_File>
/cluster/rxdock/data/scripts/dock.prm

>  <Rbt.Receptor>
rx_4.prm

>  <SCORE>
13.8324

>  <SCORE.INTER>
-1.76842

>  <SCORE.INTER.CONST>
1

>  <SCORE.INTER.POLAR>
-3.50558

>  <SCORE.INTER.REPUL>
0.362886

>  <SCORE.INTER.ROT>
32

>  <SCORE.INTER.VDW>
-29.0639

>  <SCORE.INTER.norm>
-0.0353684

>  <SCORE.INTRA>
12.5916

>  <SCORE.INTRA.DIHEDRAL>
11.1256

>  <SCORE.INTRA.DIHEDRAL.0>
47.3121

>  <SCORE.INTRA.POLAR>
1.47808

>  <SCORE.INTRA.POLAR.0>
-1.47808

>  <SCORE.INTRA.REPUL>
0

>  <SCORE.INTRA.REPUL.0>
0

>  <SCORE.INTRA.VDW>
2.00337

>  <SCORE.INTRA.VDW.0>
-2.78316

>  <SCORE.INTRA.norm>
0.251833

>  <SCORE.RESTR>
3.00914

>  <SCORE.RESTR.CAVITY>
3.00914

>  <SCORE.RESTR.norm>
0.0601829

>  <SCORE.SYSTEM>
0

>  <SCORE.SYSTEM.CONST>
0

>  <SCORE.SYSTEM.DIHEDRAL>
0

>  <SCORE.SYSTEM.norm>
0

>  <SCORE.heavy>
50

>  <SCORE.norm>
0.276647

$$$$
