FB1.pdb
  RxDock  10072007243D
librxdock.so/0.1.0
 59 58  0  0  0  0  0  0  0  0999 V2000
   -3.9730   -1.6468  -10.6115 C   0  0  0  0  0  0
   -2.5973   -1.9067  -11.2208 C   0  0  0  0  0  0
   -1.6354   -0.7323  -10.9769 C   0  0  0  0  0  0
   -1.0856   -0.6746   -9.5297 C   0  0  0  0  0  0
   -0.1047   -1.8376   -9.1479 C   0  0  0  0  0  0
    1.2998   -1.4860   -9.6906 C   0  0  0  0  0  0
   -0.0527   -2.1365   -7.5904 C   0  0  0  0  0  0
   -0.4948   -0.9503   -6.6087 C   0  0  0  0  0  0
   -0.3223   -0.9584   -5.0281 C   0  0  0  0  0  0
   -1.1453   -2.1517   -4.2407 C   0  0  0  0  0  0
   -0.1609   -2.9208   -3.3611 C   0  0  0  0  0  0
   -2.3936   -1.6844   -3.3642 C   0  0  0  0  0  0
   -3.1676   -2.6350   -2.3079 C   0  0  0  0  0  0
   -2.8803   -4.1713   -2.1929 C   0  0  0  0  0  0
   -3.8330   -5.0525   -1.2627 C   0  0  0  0  0  0
   -3.3968   -6.4034   -0.5703 C   0  0  0  0  0  0
   -4.3571   -7.0920    0.4352 C   0  0  0  0  0  0
   -3.6924   -7.7645    1.6981 C   0  0  0  0  0  0
   -3.3673   -6.8325    2.8721 C   0  0  0  0  0  0
   -4.5298   -6.3879    3.8044 C   0  0  0  0  0  0
   -5.0677   -7.3441    4.9096 C   0  0  0  0  0  0
   -4.0407   -8.2372    5.5915 C   0  0  0  0  0  0
   -5.8643   -6.6015    5.9048 N   0  0  0  0  0  0
   -4.0072   -5.2409    4.5221 O   0  0  0  0  0  0
   -4.5716   -8.7937    2.1645 O   0  0  0  0  0  0
   -2.8413   -2.0946   -1.0163 O   0  0  0  0  0  0
    0.2330    0.2301   -7.0440 O   0  0  0  0  0  0
   -0.2612    1.4359   -6.6605 C   0  0  0  0  0  0
   -0.9071    1.6617   -5.6549 O   0  0  0  0  0  0
    0.2102    2.4764   -7.6385 C   0  0  0  0  0  0
    1.6021    2.1621   -8.2097 C   0  0  0  0  0  0
    1.8724    2.8875   -9.5342 C   0  0  0  0  0  0
    1.0069    2.3368  -10.6437 C   0  0  0  0  0  0
    0.7437    1.1459  -10.7711 O   0  0  0  0  0  0
    0.5484    3.2787  -11.4813 O   0  0  0  0  0  0
    2.6083    2.6205   -7.1450 C   0  0  0  0  0  0
    2.4904    2.3559   -5.9582 O   0  0  0  0  0  0
    3.6059    3.3804   -7.6176 O   0  0  0  0  0  0
   -0.7408   -3.4098   -7.2662 O   0  0  0  0  0  0
   -0.3640   -4.5547   -7.9483 C   0  0  0  0  0  0
    0.6769   -4.6778   -8.5805 O   0  0  0  0  0  0
   -1.4050   -5.6755   -7.8274 C   0  0  0  0  0  0
   -2.2768   -5.6535   -6.5336 C   0  0  0  0  0  0
   -3.5847   -4.8415   -6.5564 C   0  0  0  0  0  0
   -3.3574   -3.3683   -6.7371 C   0  0  0  0  0  0
   -3.1149   -2.8086   -7.7975 O   0  0  0  0  0  0
   -3.4667   -2.6873   -5.5862 O   0  0  0  0  0  0
   -2.6136   -7.0388   -5.9680 C   0  0  0  0  0  0
   -3.6880   -7.3035   -5.4656 O   0  0  0  0  0  0
   -1.6728   -7.9872   -6.1596 O   0  0  0  0  0  0
   -6.8150   -6.4893    5.5553 H   0  0  0  0  0  0
   -5.4954   -5.6505    5.9747 H   0  0  0  0  0  0
   -3.9653   -4.5278    3.8504 H   0  0  0  0  0  0
   -4.5759   -9.5120    1.5052 H   0  0  0  0  0  0
   -1.8965   -2.2541   -0.8536 H   0  0  0  0  0  0
    0.0213    2.9467  -12.2332 H   0  0  0  0  0  0
    3.8925    3.1552   -8.5373 H   0  0  0  0  0  0
   -3.6327   -3.3492   -4.8823 H   0  0  0  0  0  0
   -1.1820   -8.2604   -5.3530 H   0  0  0  0  0  0
  1  2  1  0  0  0
  2  3  1  0  0  0
  3  4  1  0  0  0
  4  5  1  0  0  0
  5  6  1  0  0  0
  5  7  1  0  0  0
  7  8  1  0  0  0
  7 39  1  0  0  0
  8  9  1  0  0  0
  8 27  1  0  0  0
  9 10  1  0  0  0
 10 11  1  0  0  0
 10 12  1  0  0  0
 12 13  1  0  0  0
 13 14  1  0  0  0
 13 26  1  0  0  0
 14 15  1  0  0  0
 15 16  1  0  0  0
 16 17  1  0  0  0
 17 18  1  0  0  0
 18 19  1  0  0  0
 18 25  1  0  0  0
 19 20  1  0  0  0
 20 21  1  0  0  0
 20 24  1  0  0  0
 21 22  1  0  0  0
 21 23  1  0  0  0
 23 51  1  0  0  0
 23 52  1  0  0  0
 24 53  1  0  0  0
 25 54  1  0  0  0
 26 55  1  0  0  0
 27 28  1  0  0  0
 28 29  2  0  0  0
 28 30  1  0  0  0
 30 31  1  0  0  0
 31 32  1  0  0  0
 31 36  1  0  0  0
 32 33  1  0  0  0
 33 34  2  0  0  0
 33 35  1  0  0  0
 35 56  1  0  0  0
 36 37  2  0  0  0
 36 38  1  0  0  0
 38 57  1  0  0  0
 39 40  1  0  0  0
 40 41  2  0  0  0
 40 42  1  0  0  0
 42 43  1  0  0  0
 43 44  1  0  0  0
 43 48  1  0  0  0
 44 45  1  0  0  0
 45 46  2  0  0  0
 45 47  1  0  0  0
 47 58  1  0  0  0
 48 49  2  0  0  0
 48 50  1  0  0  0
 50 59  1  0  0  0
M  END
>  <AUTHOR>
    GENERATED BY OPEN BABEL 2.4.1

>  <CHROM.1>
75.93885056,68.51308569,81.34521279,-22.87263569,-170.72773469,53.26840440
-61.84715431,159.98517833,126.44477975,-168.39153566,-8.63049587,-171.83037350
-68.36794263,-154.04519802,173.34673371,-141.78504344,82.62419357,77.78945633
68.89603475,79.04685845,35.26915645,71.40862661,83.13426217,28.49618066,-32.65086313
159.09665478,-68.92005202,46.54023773,-38.65473088,177.18746349,-33.16561493
16.99199704,-27.76236442,88.98555270,-64.16742030,-142.76399272,79.04824378
2.63305959,108.61585818,-1.61060608,-2.76202103,-4.91277068,0.74926444,-1.11991434
-1.76084595

>  <COMPND>
    UNNAMED

>  <MASTER>
        0    0    0    0    0    0    0    0  109    0  109    0

>  <Name>
FB1.pdb

>  <RI>
0

>  <Rbt.Current_Directory>
/cluster/tossine/FB1_39T3/p3/1_clust02

>  <Rbt.Executable>
rbdock/0.1.0

>  <Rbt.Library>
librxdock.so/0.1.0

>  <Rbt.Parameter_File>
/cluster/rxdock/data/scripts/dock.prm

>  <Rbt.Receptor>
rx_0.prm

>  <SCORE>
107.261

>  <SCORE.INTER>
72.701

>  <SCORE.INTER.CONST>
1

>  <SCORE.INTER.POLAR>
-2.62439

>  <SCORE.INTER.REPUL>
0.415198

>  <SCORE.INTER.ROT>
32

>  <SCORE.INTER.VDW>
42.1479

>  <SCORE.INTER.norm>
1.45402

>  <SCORE.INTRA>
31.3694

>  <SCORE.INTRA.DIHEDRAL>
44.2327

>  <SCORE.INTRA.DIHEDRAL.0>
47.3121

>  <SCORE.INTRA.POLAR>
1.28558

>  <SCORE.INTRA.POLAR.0>
-1.47808

>  <SCORE.INTRA.REPUL>
0

>  <SCORE.INTRA.REPUL.0>
0

>  <SCORE.INTRA.VDW>
4.88202

>  <SCORE.INTRA.VDW.0>
-2.78316

>  <SCORE.INTRA.norm>
0.627387

>  <SCORE.RESTR>
3.19099

>  <SCORE.RESTR.CAVITY>
3.19099

>  <SCORE.RESTR.norm>
0.0638198

>  <SCORE.SYSTEM>
0

>  <SCORE.SYSTEM.CONST>
0

>  <SCORE.SYSTEM.DIHEDRAL>
0

>  <SCORE.SYSTEM.norm>
0

>  <SCORE.heavy>
50

>  <SCORE.norm>
2.14523

$$$$
