FB1.pdb
  RxDock  10072009493D
librxdock.so/0.1.0
 59 58  0  0  0  0  0  0  0  0999 V2000
   -2.5942   -4.7659   -5.9551 C   0  0  0  0  0  0
   -2.3648   -3.2567   -5.9896 C   0  0  0  0  0  0
   -1.8311   -2.7930   -7.3550 C   0  0  0  0  0  0
   -0.2909   -2.8971   -7.4838 C   0  0  0  0  0  0
    0.2690   -2.6667   -8.9309 C   0  0  0  0  0  0
   -0.1781   -3.8510   -9.8187 C   0  0  0  0  0  0
   -0.1723   -1.2819   -9.5676 C   0  0  0  0  0  0
    0.8262   -0.0440   -9.3757 C   0  0  0  0  0  0
    0.4193    1.4879   -9.5024 C   0  0  0  0  0  0
    0.6396    2.1488  -10.9977 C   0  0  0  0  0  0
    0.3235    3.6415  -10.9197 C   0  0  0  0  0  0
    2.0788    1.9403  -11.6535 C   0  0  0  0  0  0
    3.4698    2.0058  -10.8293 C   0  0  0  0  0  0
    3.5930    2.7304   -9.4451 C   0  0  0  0  0  0
    4.0347    4.2646   -9.4301 C   0  0  0  0  0  0
    4.3161    5.0954   -8.1166 C   0  0  0  0  0  0
    4.7633    6.5768   -8.2302 C   0  0  0  0  0  0
    5.1066    7.3157   -6.8791 C   0  0  0  0  0  0
    6.5801    7.6807   -6.6597 C   0  0  0  0  0  0
    7.6680    6.6911   -7.1652 C   0  0  0  0  0  0
    9.1472    7.1530   -7.3203 C   0  0  0  0  0  0
   10.1479    6.0886   -7.7481 C   0  0  0  0  0  0
    9.2381    8.3418   -8.1891 N   0  0  0  0  0  0
    7.7051    5.6426   -6.1636 O   0  0  0  0  0  0
    4.3274    8.5154   -6.8215 O   0  0  0  0  0  0
    3.8082    0.6336  -10.5659 O   0  0  0  0  0  0
    1.3670   -0.1627   -8.0319 O   0  0  0  0  0  0
    2.3802   -1.0493   -7.8508 C   0  0  0  0  0  0
    3.1087   -1.4958   -8.7164 O   0  0  0  0  0  0
    2.5223   -1.3152   -6.3775 C   0  0  0  0  0  0
    1.3313   -0.7838   -5.5641 C   0  0  0  0  0  0
    0.7322   -1.8469   -4.6345 C   0  0  0  0  0  0
   -0.5819   -1.3825   -4.0506 C   0  0  0  0  0  0
   -1.0874   -0.2933   -4.2994 O   0  0  0  0  0  0
   -1.1489   -2.2794   -3.2304 O   0  0  0  0  0  0
    1.8748    0.3902   -4.7381 C   0  0  0  0  0  0
    1.7431    0.4704   -3.5262 O   0  0  0  0  0  0
    2.4657    1.3499   -5.4632 O   0  0  0  0  0  0
   -0.5815   -1.4497  -10.9833 O   0  0  0  0  0  0
   -1.6804   -0.7415  -11.4401 C   0  0  0  0  0  0
   -1.9266    0.4229  -11.1538 O   0  0  0  0  0  0
   -2.5752   -1.5819  -12.3606 C   0  0  0  0  0  0
   -4.0393   -1.0708  -12.5331 C   0  0  0  0  0  0
   -5.0561   -2.0052  -13.2139 C   0  0  0  0  0  0
   -4.6573   -3.4514  -13.1511 C   0  0  0  0  0  0
   -5.1571   -4.2985  -12.4236 O   0  0  0  0  0  0
   -3.6743   -3.7506  -14.0139 O   0  0  0  0  0  0
   -4.6907   -0.5549  -11.2440 C   0  0  0  0  0  0
   -5.6855    0.1431  -11.2405 O   0  0  0  0  0  0
   -4.1490   -1.0151  -10.0968 O   0  0  0  0  0  0
   10.1945    8.6935   -8.1749 H   0  0  0  0  0  0
    8.6760    9.0905   -7.7781 H   0  0  0  0  0  0
    6.8292    5.2070   -6.2300 H   0  0  0  0  0  0
    3.5102    8.3239   -6.3255 H   0  0  0  0  0  0
    3.7113    0.1356  -11.3948 H   0  0  0  0  0  0
   -0.6762   -3.1303   -3.1529 H   0  0  0  0  0  0
    2.7693    2.1318   -4.9387 H   0  0  0  0  0  0
   -4.0961   -3.8682  -14.8912 H   0  0  0  0  0  0
   -4.4963   -0.6040   -9.2743 H   0  0  0  0  0  0
  1  2  1  0  0  0
  2  3  1  0  0  0
  3  4  1  0  0  0
  4  5  1  0  0  0
  5  6  1  0  0  0
  5  7  1  0  0  0
  7  8  1  0  0  0
  7 39  1  0  0  0
  8  9  1  0  0  0
  8 27  1  0  0  0
  9 10  1  0  0  0
 10 11  1  0  0  0
 10 12  1  0  0  0
 12 13  1  0  0  0
 13 14  1  0  0  0
 13 26  1  0  0  0
 14 15  1  0  0  0
 15 16  1  0  0  0
 16 17  1  0  0  0
 17 18  1  0  0  0
 18 19  1  0  0  0
 18 25  1  0  0  0
 19 20  1  0  0  0
 20 21  1  0  0  0
 20 24  1  0  0  0
 21 22  1  0  0  0
 21 23  1  0  0  0
 23 51  1  0  0  0
 23 52  1  0  0  0
 24 53  1  0  0  0
 25 54  1  0  0  0
 26 55  1  0  0  0
 27 28  1  0  0  0
 28 29  2  0  0  0
 28 30  1  0  0  0
 30 31  1  0  0  0
 31 32  1  0  0  0
 31 36  1  0  0  0
 32 33  1  0  0  0
 33 34  2  0  0  0
 33 35  1  0  0  0
 35 56  1  0  0  0
 36 37  2  0  0  0
 36 38  1  0  0  0
 38 57  1  0  0  0
 39 40  1  0  0  0
 40 41  2  0  0  0
 40 42  1  0  0  0
 42 43  1  0  0  0
 43 44  1  0  0  0
 43 48  1  0  0  0
 44 45  1  0  0  0
 45 46  2  0  0  0
 45 47  1  0  0  0
 47 58  1  0  0  0
 48 49  2  0  0  0
 48 50  1  0  0  0
 50 59  1  0  0  0
M  END
>  <AUTHOR>
    GENERATED BY OPEN BABEL 2.4.1

>  <CHROM.1>
-85.77750410,170.13471338,-68.12484499,93.13340365,-159.56967784,139.91777920
-93.11304885,79.86785430,-175.00738237,-38.95300467,-20.81379963,-92.09924404
47.53936515,-174.80933579,178.98661008,-176.54071384,111.62892983,-36.53925645
94.12705244,163.70568367,176.72515800,65.78223038,172.65933014,20.32114706
12.64938319,128.60210041,-169.25224962,-126.67274713,-0.01874522,-3.35032099
176.58425138,40.97023336,160.11039599,-168.35129175,22.10568264,162.97028595
105.45225233,-80.51674006,173.10804582,1.04495129,0.78698496,-8.60789055
-3.05354804,-0.74768836,-1.10573782

>  <COMPND>
    UNNAMED

>  <MASTER>
        0    0    0    0    0    0    0    0  109    0  109    0

>  <Name>
FB1.pdb

>  <RI>
0

>  <Rbt.Current_Directory>
/cluster/tossine/FB1_39T3/p3/1_clust02

>  <Rbt.Executable>
rbdock/0.1.0

>  <Rbt.Library>
librxdock.so/0.1.0

>  <Rbt.Parameter_File>
/cluster/rxdock/data/scripts/dock.prm

>  <Rbt.Receptor>
rx_4.prm

>  <SCORE>
28.1502

>  <SCORE.INTER>
-4.90496

>  <SCORE.INTER.CONST>
1

>  <SCORE.INTER.POLAR>
-4.51593

>  <SCORE.INTER.REPUL>
0.83058

>  <SCORE.INTER.ROT>
32

>  <SCORE.INTER.VDW>
-31.1037

>  <SCORE.INTER.norm>
-0.0980992

>  <SCORE.INTRA>
29.4532

>  <SCORE.INTRA.DIHEDRAL>
50.503

>  <SCORE.INTRA.DIHEDRAL.0>
47.3121

>  <SCORE.INTRA.POLAR>
1.47808

>  <SCORE.INTRA.POLAR.0>
-1.47808

>  <SCORE.INTRA.REPUL>
0.225016

>  <SCORE.INTRA.REPUL.0>
0

>  <SCORE.INTRA.VDW>
-1.94884

>  <SCORE.INTRA.VDW.0>
-2.78316

>  <SCORE.INTRA.norm>
0.589064

>  <SCORE.RESTR>
3.60201

>  <SCORE.RESTR.CAVITY>
3.60201

>  <SCORE.RESTR.norm>
0.0720401

>  <SCORE.SYSTEM>
0

>  <SCORE.SYSTEM.CONST>
0

>  <SCORE.SYSTEM.DIHEDRAL>
0

>  <SCORE.SYSTEM.norm>
0

>  <SCORE.heavy>
50

>  <SCORE.norm>
0.563005

$$$$
