FB1.pdb
  RxDock  10072009123D
librxdock.so/0.1.0
 59 58  0  0  0  0  0  0  0  0999 V2000
   -2.2398   -2.4117   -2.3715 C   0  0  0  0  0  0
   -3.3288   -2.0347   -3.3732 C   0  0  0  0  0  0
   -3.4200   -3.0502   -4.5241 C   0  0  0  0  0  0
   -2.0871   -3.2353   -5.2915 C   0  0  0  0  0  0
   -2.2219   -3.2645   -6.8540 C   0  0  0  0  0  0
   -2.8280   -1.9186   -7.3143 C   0  0  0  0  0  0
   -0.8533   -3.5559   -7.6023 C   0  0  0  0  0  0
   -0.8649   -3.4569   -9.2011 C   0  0  0  0  0  0
    0.2767   -2.7908  -10.0850 C   0  0  0  0  0  0
   -0.1830   -1.4474  -10.9247 C   0  0  0  0  0  0
   -1.2459   -0.7084  -10.1135 C   0  0  0  0  0  0
    0.9833   -0.4356  -11.3257 C   0  0  0  0  0  0
    1.4440    0.8235  -10.4195 C   0  0  0  0  0  0
    2.9301    1.3175  -10.3611 C   0  0  0  0  0  0
    3.3426    2.3429   -9.2089 C   0  0  0  0  0  0
    2.3753    3.4341   -8.6023 C   0  0  0  0  0  0
    2.9243    4.8497   -8.2827 C   0  0  0  0  0  0
    2.7076    5.9563   -9.3862 C   0  0  0  0  0  0
    1.7299    7.0844   -9.0344 C   0  0  0  0  0  0
    0.2140    6.7474   -8.9522 C   0  0  0  0  0  0
   -0.8566    7.8507   -9.2015 C   0  0  0  0  0  0
   -2.3032    7.4660   -8.9241 C   0  0  0  0  0  0
   -0.4989    9.0981   -8.4999 N   0  0  0  0  0  0
   -0.0028    5.7700  -10.0017 O   0  0  0  0  0  0
    3.9818    6.5359   -9.6867 O   0  0  0  0  0  0
    0.6972    1.9401  -10.9315 O   0  0  0  0  0  0
   -0.9497   -4.8222   -9.6922 O   0  0  0  0  0  0
   -2.1414   -5.4576   -9.5455 C   0  0  0  0  0  0
   -3.0214   -5.5381  -10.3812 O   0  0  0  0  0  0
   -2.1557   -6.1388   -8.2048 C   0  0  0  0  0  0
   -3.5065   -5.9974   -7.4852 C   0  0  0  0  0  0
   -4.6520   -6.6791   -8.2444 C   0  0  0  0  0  0
   -5.6812   -5.6703   -8.6988 C   0  0  0  0  0  0
   -6.8512   -5.6826   -8.3318 O   0  0  0  0  0  0
   -5.1921   -4.7524   -9.5457 O   0  0  0  0  0  0
   -3.3229   -6.6549   -6.1105 C   0  0  0  0  0  0
   -2.8849   -6.0579   -5.1388 O   0  0  0  0  0  0
   -3.6371   -7.9571   -6.0738 O   0  0  0  0  0  0
    0.2592   -2.7764   -7.0067 O   0  0  0  0  0  0
    0.3441   -1.4242   -7.2940 C   0  0  0  0  0  0
    1.2155   -0.9125   -7.9848 O   0  0  0  0  0  0
   -0.7885   -0.6173   -6.6456 C   0  0  0  0  0  0
   -0.3608    0.3473   -5.4961 C   0  0  0  0  0  0
    0.3992   -0.2485   -4.2971 C   0  0  0  0  0  0
    1.5874   -1.0706   -4.7056 C   0  0  0  0  0  0
    2.5178   -0.6843   -5.3997 O   0  0  0  0  0  0
    1.5468   -2.3150   -4.2054 O   0  0  0  0  0  0
    0.4203    1.5835   -5.9586 C   0  0  0  0  0  0
    1.2806    2.1120   -5.2824 O   0  0  0  0  0  0
    0.1667    1.9906   -7.2200 O   0  0  0  0  0  0
    0.2645    9.5542   -8.9976 H   0  0  0  0  0  0
   -0.1108    8.8585   -7.5848 H   0  0  0  0  0  0
   -0.9057    5.4258   -9.8356 H   0  0  0  0  0  0
    4.2041    7.1663   -8.9769 H   0  0  0  0  0  0
   -0.1541    1.9724  -10.4639 H   0  0  0  0  0  0
   -5.8354   -4.0860   -9.8547 H   0  0  0  0  0  0
   -3.9415   -8.2808   -5.1899 H   0  0  0  0  0  0
    2.3307   -2.7860   -4.5589 H   0  0  0  0  0  0
   -0.4815    2.7250   -7.3017 H   0  0  0  0  0  0
  1  2  1  0  0  0
  2  3  1  0  0  0
  3  4  1  0  0  0
  4  5  1  0  0  0
  5  6  1  0  0  0
  5  7  1  0  0  0
  7  8  1  0  0  0
  7 39  1  0  0  0
  8  9  1  0  0  0
  8 27  1  0  0  0
  9 10  1  0  0  0
 10 11  1  0  0  0
 10 12  1  0  0  0
 12 13  1  0  0  0
 13 14  1  0  0  0
 13 26  1  0  0  0
 14 15  1  0  0  0
 15 16  1  0  0  0
 16 17  1  0  0  0
 17 18  1  0  0  0
 18 19  1  0  0  0
 18 25  1  0  0  0
 19 20  1  0  0  0
 20 21  1  0  0  0
 20 24  1  0  0  0
 21 22  1  0  0  0
 21 23  1  0  0  0
 23 51  1  0  0  0
 23 52  1  0  0  0
 24 53  1  0  0  0
 25 54  1  0  0  0
 26 55  1  0  0  0
 27 28  1  0  0  0
 28 29  2  0  0  0
 28 30  1  0  0  0
 30 31  1  0  0  0
 31 32  1  0  0  0
 31 36  1  0  0  0
 32 33  1  0  0  0
 33 34  2  0  0  0
 33 35  1  0  0  0
 35 56  1  0  0  0
 36 37  2  0  0  0
 36 38  1  0  0  0
 38 57  1  0  0  0
 39 40  1  0  0  0
 40 41  2  0  0  0
 40 42  1  0  0  0
 42 43  1  0  0  0
 43 44  1  0  0  0
 43 48  1  0  0  0
 44 45  1  0  0  0
 45 46  2  0  0  0
 45 47  1  0  0  0
 47 58  1  0  0  0
 48 49  2  0  0  0
 48 50  1  0  0  0
 50 59  1  0  0  0
M  END
>  <AUTHOR>
    GENERATED BY OPEN BABEL 2.4.1

>  <CHROM.1>
-56.84884706,-135.67700184,60.31934347,-173.95233255,138.22998651,-75.85825732
-115.29258648,72.49556683,32.19872490,-91.70102331,146.56067867,-166.64710110
87.90327192,-32.24087453,-139.71183902,95.87641664,111.56039669,-70.37525964
-78.29528523,-154.00947351,-172.42200748,168.97768310,74.46004153,95.42718500
138.59514985,63.52027269,-116.23708197,86.59692101,-118.37726670,-179.88561444
-152.09417882,-110.75345140,111.28394622,-56.16855267,51.52548121,-147.92038697
56.15364474,177.18944571,97.60603742,-0.69235930,-0.61668808,-7.79057396
-2.66685696,-1.12355131,-1.20422633

>  <COMPND>
    UNNAMED

>  <MASTER>
        0    0    0    0    0    0    0    0  109    0  109    0

>  <Name>
FB1.pdb

>  <RI>
0

>  <Rbt.Current_Directory>
/cluster/tossine/FB1_39T3/p3/1_clust02

>  <Rbt.Executable>
rbdock/0.1.0

>  <Rbt.Library>
librxdock.so/0.1.0

>  <Rbt.Parameter_File>
/cluster/rxdock/data/scripts/dock.prm

>  <Rbt.Receptor>
rx_3.prm

>  <SCORE>
100.035

>  <SCORE.INTER>
30.9907

>  <SCORE.INTER.CONST>
1

>  <SCORE.INTER.POLAR>
-1.58872

>  <SCORE.INTER.REPUL>
1.46398

>  <SCORE.INTER.ROT>
32

>  <SCORE.INTER.VDW>
-8.32753

>  <SCORE.INTER.norm>
0.619815

>  <SCORE.INTRA>
64.9233

>  <SCORE.INTRA.DIHEDRAL>
97.6019

>  <SCORE.INTRA.DIHEDRAL.0>
47.3121

>  <SCORE.INTRA.POLAR>
1.47808

>  <SCORE.INTRA.POLAR.0>
-1.47808

>  <SCORE.INTRA.REPUL>
0.0156445

>  <SCORE.INTRA.REPUL.0>
0

>  <SCORE.INTRA.VDW>
11.0186

>  <SCORE.INTRA.VDW.0>
-2.78316

>  <SCORE.INTRA.norm>
1.29847

>  <SCORE.RESTR>
4.12109

>  <SCORE.RESTR.CAVITY>
4.12109

>  <SCORE.RESTR.norm>
0.0824218

>  <SCORE.SYSTEM>
0

>  <SCORE.SYSTEM.CONST>
0

>  <SCORE.SYSTEM.DIHEDRAL>
0

>  <SCORE.SYSTEM.norm>
0

>  <SCORE.heavy>
50

>  <SCORE.norm>
2.0007

$$$$
