FB1.pdb
  RxDock  10072008033D
librxdock.so/0.1.0
 59 58  0  0  0  0  0  0  0  0999 V2000
   -2.8017   -3.6400   -2.3066 C   0  0  0  0  0  0
   -3.5776   -2.5755   -3.0787 C   0  0  0  0  0  0
   -2.6368   -1.5833   -3.7822 C   0  0  0  0  0  0
   -2.4558   -1.8696   -5.2938 C   0  0  0  0  0  0
   -1.6204   -3.1543   -5.6284 C   0  0  0  0  0  0
   -2.5832   -4.3636   -5.6651 C   0  0  0  0  0  0
   -0.7997   -3.0412   -6.9817 C   0  0  0  0  0  0
   -1.6462   -2.9612   -8.3394 C   0  0  0  0  0  0
   -1.0724   -2.5033   -9.7498 C   0  0  0  0  0  0
   -1.7899   -1.1657  -10.3959 C   0  0  0  0  0  0
   -0.7881   -0.0128  -10.3601 C   0  0  0  0  0  0
   -2.3709   -1.3238  -11.8732 C   0  0  0  0  0  0
   -3.9210   -1.6445  -12.2093 C   0  0  0  0  0  0
   -5.0858   -0.6767  -11.8059 C   0  0  0  0  0  0
   -4.8520    0.8952  -11.9597 C   0  0  0  0  0  0
   -5.7970    1.9989  -11.3407 C   0  0  0  0  0  0
   -5.5557    3.4926  -11.6847 C   0  0  0  0  0  0
   -4.0784    4.0233  -11.5263 C   0  0  0  0  0  0
   -3.5307    4.8644  -12.6860 C   0  0  0  0  0  0
   -2.0312    4.7073  -13.0669 C   0  0  0  0  0  0
   -0.9458    4.5514  -11.9610 C   0  0  0  0  0  0
   -1.0137    5.5357  -10.8017 C   0  0  0  0  0  0
   -0.8917    3.1613  -11.4700 N   0  0  0  0  0  0
   -1.9723    3.4735  -13.8272 O   0  0  0  0  0  0
   -4.0159    4.8049  -10.3284 O   0  0  0  0  0  0
   -3.9793   -1.7245  -13.6435 O   0  0  0  0  0  0
   -2.1599   -4.2998   -8.5774 O   0  0  0  0  0  0
   -3.3264   -4.3994   -9.2664 C   0  0  0  0  0  0
   -3.8137   -3.5460   -9.9831 O   0  0  0  0  0  0
   -3.8733   -5.7876   -9.0783 C   0  0  0  0  0  0
   -5.3751   -5.8780   -9.3928 C   0  0  0  0  0  0
   -5.6570   -5.9656  -10.8982 C   0  0  0  0  0  0
   -5.7077   -4.5911  -11.5241 C   0  0  0  0  0  0
   -5.0477   -4.2682  -12.5059 O   0  0  0  0  0  0
   -6.5490   -3.7517  -10.9026 O   0  0  0  0  0  0
   -5.8776   -7.1465   -8.6897 C   0  0  0  0  0  0
   -5.1301   -7.9663   -8.1783 O   0  0  0  0  0  0
   -7.2075   -7.3084   -8.7249 O   0  0  0  0  0  0
    0.2209   -1.9680   -6.9009 O   0  0  0  0  0  0
    1.3679   -2.0901   -7.6674 C   0  0  0  0  0  0
    1.5623   -2.9716   -8.4942 O   0  0  0  0  0  0
    2.3900   -0.9853   -7.3690 C   0  0  0  0  0  0
    2.3409    0.2559   -8.3131 C   0  0  0  0  0  0
    2.2471    0.0078   -9.8297 C   0  0  0  0  0  0
    2.2996    1.2736  -10.6355 C   0  0  0  0  0  0
    1.3343    1.9450  -10.9732 O   0  0  0  0  0  0
    3.5542    1.6296  -10.9509 O   0  0  0  0  0  0
    1.2633    1.2869   -7.9554 C   0  0  0  0  0  0
    1.4296    2.4847   -8.0760 O   0  0  0  0  0  0
    0.0680    0.7745   -7.5951 O   0  0  0  0  0  0
    0.0410    2.9717  -11.1058 H   0  0  0  0  0  0
   -0.9970    2.5292  -12.2667 H   0  0  0  0  0  0
   -1.2112    3.5934  -14.4336 H   0  0  0  0  0  0
   -3.4550    5.5832  -10.5020 H   0  0  0  0  0  0
   -4.9138   -1.6941  -13.9086 H   0  0  0  0  0  0
   -6.5598   -2.8393  -11.2505 H   0  0  0  0  0  0
   -7.5224   -8.1871   -8.3972 H   0  0  0  0  0  0
    3.4922    2.4803  -11.4345 H   0  0  0  0  0  0
    0.0100   -0.2066   -7.6108 H   0  0  0  0  0  0
  1  2  1  0  0  0
  2  3  1  0  0  0
  3  4  1  0  0  0
  4  5  1  0  0  0
  5  6  1  0  0  0
  5  7  1  0  0  0
  7  8  1  0  0  0
  7 39  1  0  0  0
  8  9  1  0  0  0
  8 27  1  0  0  0
  9 10  1  0  0  0
 10 11  1  0  0  0
 10 12  1  0  0  0
 12 13  1  0  0  0
 13 14  1  0  0  0
 13 26  1  0  0  0
 14 15  1  0  0  0
 15 16  1  0  0  0
 16 17  1  0  0  0
 17 18  1  0  0  0
 18 19  1  0  0  0
 18 25  1  0  0  0
 19 20  1  0  0  0
 20 21  1  0  0  0
 20 24  1  0  0  0
 21 22  1  0  0  0
 21 23  1  0  0  0
 23 51  1  0  0  0
 23 52  1  0  0  0
 24 53  1  0  0  0
 25 54  1  0  0  0
 26 55  1  0  0  0
 27 28  1  0  0  0
 28 29  2  0  0  0
 28 30  1  0  0  0
 30 31  1  0  0  0
 31 32  1  0  0  0
 31 36  1  0  0  0
 32 33  1  0  0  0
 33 34  2  0  0  0
 33 35  1  0  0  0
 35 56  1  0  0  0
 36 37  2  0  0  0
 36 38  1  0  0  0
 38 57  1  0  0  0
 39 40  1  0  0  0
 40 41  2  0  0  0
 40 42  1  0  0  0
 42 43  1  0  0  0
 43 44  1  0  0  0
 43 48  1  0  0  0
 44 45  1  0  0  0
 45 46  2  0  0  0
 45 47  1  0  0  0
 47 58  1  0  0  0
 48 49  2  0  0  0
 48 50  1  0  0  0
 50 59  1  0  0  0
M  END
>  <AUTHOR>
    GENERATED BY OPEN BABEL 2.4.1

>  <CHROM.1>
100.66221364,-70.82030123,87.50133459,-66.77976126,164.62532715,151.72789710
-118.92656035,151.67854872,110.34233544,96.96140646,61.86839103,39.94883082
-166.08798302,-167.40848820,-173.40690573,-49.42286918,133.59866579,-143.47189285
-140.07595928,-39.64299118,-47.50861119,151.64509046,154.00189322,19.61998056
160.48806307,79.82575863,-85.04168171,-9.67375274,127.42282924,176.26982913
171.09486391,6.04049808,-95.06543118,-46.02599326,-176.15036225,143.51563786
-90.28074498,-177.37793321,-0.74552482,-2.23642442,-1.05916769,-9.51364650
-2.02764125,-0.62088066,-0.63681106

>  <COMPND>
    UNNAMED

>  <MASTER>
        0    0    0    0    0    0    0    0  109    0  109    0

>  <Name>
FB1.pdb

>  <RI>
0

>  <Rbt.Current_Directory>
/cluster/tossine/FB1_39T3/p3/1_clust02

>  <Rbt.Executable>
rbdock/0.1.0

>  <Rbt.Library>
librxdock.so/0.1.0

>  <Rbt.Parameter_File>
/cluster/rxdock/data/scripts/dock.prm

>  <Rbt.Receptor>
rx_1.prm

>  <SCORE>
22.6595

>  <SCORE.INTER>
10.687

>  <SCORE.INTER.CONST>
1

>  <SCORE.INTER.POLAR>
-1.31759

>  <SCORE.INTER.REPUL>
2.45394

>  <SCORE.INTER.ROT>
32

>  <SCORE.INTER.VDW>
-34.5029

>  <SCORE.INTER.norm>
0.21374

>  <SCORE.INTRA>
9.93738

>  <SCORE.INTRA.DIHEDRAL>
26.2272

>  <SCORE.INTRA.DIHEDRAL.0>
47.3121

>  <SCORE.INTRA.POLAR>
-0.592853

>  <SCORE.INTRA.POLAR.0>
-1.47808

>  <SCORE.INTRA.REPUL>
0

>  <SCORE.INTRA.REPUL.0>
0

>  <SCORE.INTRA.VDW>
-1.16052

>  <SCORE.INTRA.VDW.0>
-2.78316

>  <SCORE.INTRA.norm>
0.198748

>  <SCORE.RESTR>
2.0351

>  <SCORE.RESTR.CAVITY>
2.0351

>  <SCORE.RESTR.norm>
0.0407019

>  <SCORE.SYSTEM>
0

>  <SCORE.SYSTEM.CONST>
0

>  <SCORE.SYSTEM.DIHEDRAL>
0

>  <SCORE.SYSTEM.norm>
0

>  <SCORE.heavy>
50

>  <SCORE.norm>
0.453189

$$$$
