FB1.pdb
  RxDock  10072007233D
librxdock.so/0.1.0
 59 58  0  0  0  0  0  0  0  0999 V2000
   -2.2628    0.0035  -11.0121 C   0  0  0  0  0  0
   -3.1059   -1.2328  -10.7085 C   0  0  0  0  0  0
   -2.2484   -2.3872  -10.1642 C   0  0  0  0  0  0
   -1.6734   -2.1165   -8.7515 C   0  0  0  0  0  0
   -0.6329   -3.1761   -8.2466 C   0  0  0  0  0  0
    0.7686   -2.7574   -8.7477 C   0  0  0  0  0  0
   -0.6383   -3.3683   -6.6715 C   0  0  0  0  0  0
   -0.8354   -2.0517   -5.7804 C   0  0  0  0  0  0
   -0.8106   -2.0103   -4.1911 C   0  0  0  0  0  0
   -2.2719   -1.7377   -3.4757 C   0  0  0  0  0  0
   -3.3175   -1.5333   -4.5707 C   0  0  0  0  0  0
   -2.7758   -2.8573   -2.4572 C   0  0  0  0  0  0
   -2.5891   -4.4476   -2.6914 C   0  0  0  0  0  0
   -3.4449   -5.5154   -1.9275 C   0  0  0  0  0  0
   -3.4562   -7.0132   -2.4803 C   0  0  0  0  0  0
   -4.0584   -8.2452   -1.6966 C   0  0  0  0  0  0
   -3.2058   -8.9501   -0.6086 C   0  0  0  0  0  0
   -3.9366  -10.0451    0.2609 C   0  0  0  0  0  0
   -4.3766   -9.6147    1.6658 C   0  0  0  0  0  0
   -4.9197  -10.7035    2.6342 C   0  0  0  0  0  0
   -4.6148  -10.6290    4.1596 C   0  0  0  0  0  0
   -5.0093  -11.8428    4.9894 C   0  0  0  0  0  0
   -3.2053  -10.2637    4.3967 N   0  0  0  0  0  0
   -6.3628  -10.5979    2.5341 O   0  0  0  0  0  0
   -5.0911  -10.4853   -0.4624 O   0  0  0  0  0  0
   -2.8866   -4.6537   -4.0826 O   0  0  0  0  0  0
    0.2141   -1.1293   -6.1808 O   0  0  0  0  0  0
    0.1589    0.1277   -5.6686 C   0  0  0  0  0  0
   -0.7452    0.5938   -5.0017 O   0  0  0  0  0  0
    1.4553    0.8246   -5.9771 C   0  0  0  0  0  0
    1.4767    1.4339   -7.3881 C   0  0  0  0  0  0
    0.9710    0.4581   -8.4584 C   0  0  0  0  0  0
    1.6758    0.6813   -9.7762 C   0  0  0  0  0  0
    2.1167    1.7682  -10.1340 O   0  0  0  0  0  0
    1.7766   -0.4283  -10.5229 O   0  0  0  0  0  0
    0.5650    2.6673   -7.3289 C   0  0  0  0  0  0
   -0.1626    2.9138   -6.3791 O   0  0  0  0  0  0
    0.5945    3.4302   -8.4303 O   0  0  0  0  0  0
   -1.5641   -4.4545   -6.2678 O   0  0  0  0  0  0
   -2.7805   -4.5606   -6.9214 C   0  0  0  0  0  0
   -3.3079   -3.6603   -7.5614 O   0  0  0  0  0  0
   -3.4115   -5.9497   -6.7585 C   0  0  0  0  0  0
   -4.1745   -6.4974   -8.0045 C   0  0  0  0  0  0
   -5.2196   -7.6061   -7.7830 C   0  0  0  0  0  0
   -4.6469   -8.8294   -7.1272 C   0  0  0  0  0  0
   -4.8010   -9.9816   -7.5083 O   0  0  0  0  0  0
   -3.9036   -8.5338   -6.0500 O   0  0  0  0  0  0
   -4.8351   -5.4192   -8.8724 C   0  0  0  0  0  0
   -5.9871   -5.0635   -8.7205 O   0  0  0  0  0  0
   -4.0194   -4.8064   -9.7558 O   0  0  0  0  0  0
   -2.6137  -11.0698    4.2001 H   0  0  0  0  0  0
   -3.0786  -10.0811    5.3947 H   0  0  0  0  0  0
   -6.5581  -10.7737    1.5895 H   0  0  0  0  0  0
   -5.3833  -11.3339   -0.0815 H   0  0  0  0  0  0
   -2.1512   -4.2910   -4.6043 H   0  0  0  0  0  0
    2.2576   -0.3209  -11.3659 H   0  0  0  0  0  0
    1.0607    3.0203   -9.2006 H   0  0  0  0  0  0
   -3.0411   -8.2083   -6.3840 H   0  0  0  0  0  0
   -3.0590   -4.9673   -9.6218 H   0  0  0  0  0  0
  1  2  1  0  0  0
  2  3  1  0  0  0
  3  4  1  0  0  0
  4  5  1  0  0  0
  5  6  1  0  0  0
  5  7  1  0  0  0
  7  8  1  0  0  0
  7 39  1  0  0  0
  8  9  1  0  0  0
  8 27  1  0  0  0
  9 10  1  0  0  0
 10 11  1  0  0  0
 10 12  1  0  0  0
 12 13  1  0  0  0
 13 14  1  0  0  0
 13 26  1  0  0  0
 14 15  1  0  0  0
 15 16  1  0  0  0
 16 17  1  0  0  0
 17 18  1  0  0  0
 18 19  1  0  0  0
 18 25  1  0  0  0
 19 20  1  0  0  0
 20 21  1  0  0  0
 20 24  1  0  0  0
 21 22  1  0  0  0
 21 23  1  0  0  0
 23 51  1  0  0  0
 23 52  1  0  0  0
 24 53  1  0  0  0
 25 54  1  0  0  0
 26 55  1  0  0  0
 27 28  1  0  0  0
 28 29  2  0  0  0
 28 30  1  0  0  0
 30 31  1  0  0  0
 31 32  1  0  0  0
 31 36  1  0  0  0
 32 33  1  0  0  0
 33 34  2  0  0  0
 33 35  1  0  0  0
 35 56  1  0  0  0
 36 37  2  0  0  0
 36 38  1  0  0  0
 38 57  1  0  0  0
 39 40  1  0  0  0
 40 41  2  0  0  0
 40 42  1  0  0  0
 42 43  1  0  0  0
 43 44  1  0  0  0
 43 48  1  0  0  0
 44 45  1  0  0  0
 45 46  2  0  0  0
 45 47  1  0  0  0
 47 58  1  0  0  0
 48 49  2  0  0  0
 48 50  1  0  0  0
 50 59  1  0  0  0
M  END
>  <AUTHOR>
    GENERATED BY OPEN BABEL 2.4.1

>  <CHROM.1>
68.46385014,-171.74647963,87.05269790,-38.63528255,-177.28248337,-40.03824441
-109.06902091,172.57120467,-2.16501323,-39.36749523,-161.10388702,164.72714614
72.17668531,169.09451774,-82.18726958,172.18758734,-101.43962354,-171.59971620
162.50868086,144.00213420,-171.13222576,59.96403720,-74.90197582,-6.95006071
83.34640026,-46.84172564,-147.60688784,-10.49074094,-29.19996981,-177.79903865
10.95076055,-19.29578333,-143.31067130,-158.99627525,-57.81649304,-92.63673540
-131.04822203,-77.37110767,-12.80111405,-2.32326508,-4.22512588,-5.21588287
0.93290144,-1.02248940,-1.32049463

>  <COMPND>
    UNNAMED

>  <MASTER>
        0    0    0    0    0    0    0    0  109    0  109    0

>  <Name>
FB1.pdb

>  <RI>
0

>  <Rbt.Current_Directory>
/cluster/tossine/FB1_39T3/p3/1_clust02

>  <Rbt.Executable>
rbdock/0.1.0

>  <Rbt.Library>
librxdock.so/0.1.0

>  <Rbt.Parameter_File>
/cluster/rxdock/data/scripts/dock.prm

>  <Rbt.Receptor>
rx_0.prm

>  <SCORE>
82.9255

>  <SCORE.INTER>
53.9458

>  <SCORE.INTER.CONST>
1

>  <SCORE.INTER.POLAR>
-1.15491

>  <SCORE.INTER.REPUL>
0.183352

>  <SCORE.INTER.ROT>
32

>  <SCORE.INTER.VDW>
19.5557

>  <SCORE.INTER.norm>
1.07892

>  <SCORE.INTRA>
27.2939

>  <SCORE.INTRA.DIHEDRAL>
34.2839

>  <SCORE.INTRA.DIHEDRAL.0>
47.3121

>  <SCORE.INTRA.POLAR>
0.726718

>  <SCORE.INTRA.POLAR.0>
-1.47808

>  <SCORE.INTRA.REPUL>
0

>  <SCORE.INTRA.REPUL.0>
0

>  <SCORE.INTRA.VDW>
7.68108

>  <SCORE.INTRA.VDW.0>
-2.78316

>  <SCORE.INTRA.norm>
0.545877

>  <SCORE.RESTR>
1.68585

>  <SCORE.RESTR.CAVITY>
1.68585

>  <SCORE.RESTR.norm>
0.033717

>  <SCORE.SYSTEM>
0

>  <SCORE.SYSTEM.CONST>
0

>  <SCORE.SYSTEM.DIHEDRAL>
0

>  <SCORE.SYSTEM.norm>
0

>  <SCORE.heavy>
50

>  <SCORE.norm>
1.65851

$$$$
