FB1.pdb
  RxDock  10072009503D
librxdock.so/0.1.0
 59 58  0  0  0  0  0  0  0  0999 V2000
   -5.6357   -0.3278  -11.9266 C   0  0  0  0  0  0
   -6.1364   -1.7625  -12.0762 C   0  0  0  0  0  0
   -5.0500   -2.6878  -12.6488 C   0  0  0  0  0  0
   -4.1655   -3.3481  -11.5619 C   0  0  0  0  0  0
   -4.9469   -4.1941  -10.4969 C   0  0  0  0  0  0
   -5.5593   -5.4232  -11.2076 C   0  0  0  0  0  0
   -4.0545   -4.6386   -9.2625 C   0  0  0  0  0  0
   -2.9870   -3.5752   -8.7185 C   0  0  0  0  0  0
   -2.8250   -2.0863   -9.2524 C   0  0  0  0  0  0
   -1.9218   -1.9294  -10.6239 C   0  0  0  0  0  0
   -2.5476   -0.8414  -11.4950 C   0  0  0  0  0  0
   -0.3711   -1.6197  -10.4130 C   0  0  0  0  0  0
    0.4954   -2.1430   -9.1505 C   0  0  0  0  0  0
    0.3951   -1.4844   -7.7319 C   0  0  0  0  0  0
    0.1088    0.0838   -7.6436 C   0  0  0  0  0  0
    0.7506    1.1599   -8.6052 C   0  0  0  0  0  0
    0.8235    2.6425   -8.1533 C   0  0  0  0  0  0
    1.4206    3.6683   -9.1927 C   0  0  0  0  0  0
    1.9451    4.9901   -8.6180 C   0  0  0  0  0  0
    2.5511    6.0323   -9.6003 C   0  0  0  0  0  0
    2.6642    7.5312   -9.1931 C   0  0  0  0  0  0
    1.4019    8.1812   -8.6440 C   0  0  0  0  0  0
    3.8055    7.7438   -8.2828 N   0  0  0  0  0  0
    3.9188    5.5941   -9.8033 O   0  0  0  0  0  0
    2.4897    3.0193   -9.8894 O   0  0  0  0  0  0
    0.0847   -3.5075   -8.9606 O   0  0  0  0  0  0
   -3.2544   -3.4211   -7.2983 O   0  0  0  0  0  0
   -2.2052   -3.0778   -6.5067 C   0  0  0  0  0  0
   -1.0597   -3.4706   -6.6201 O   0  0  0  0  0  0
   -2.6723   -2.0444   -5.5190 C   0  0  0  0  0  0
   -2.8738   -2.6235   -4.1096 C   0  0  0  0  0  0
   -1.6892   -2.3331   -3.1790 C   0  0  0  0  0  0
   -0.5108   -1.7866   -3.9510 C   0  0  0  0  0  0
   -0.2619   -0.5901   -4.0517 O   0  0  0  0  0  0
    0.2442   -2.7389   -4.5185 O   0  0  0  0  0  0
   -4.1467   -1.9645   -3.5607 C   0  0  0  0  0  0
   -4.5285   -0.8578   -3.9098 O   0  0  0  0  0  0
   -4.7830   -2.6839   -2.6260 O   0  0  0  0  0  0
   -4.8901   -5.1936   -8.1700 O   0  0  0  0  0  0
   -5.7352   -6.2520   -8.4593 C   0  0  0  0  0  0
   -6.9502   -6.1608   -8.5768 O   0  0  0  0  0  0
   -4.9778   -7.5765   -8.6215 C   0  0  0  0  0  0
   -5.3492   -8.6983   -7.6027 C   0  0  0  0  0  0
   -4.8842   -8.5338   -6.1443 C   0  0  0  0  0  0
   -3.4217   -8.2145   -6.0274 C   0  0  0  0  0  0
   -2.5337   -9.0180   -5.7773 O   0  0  0  0  0  0
   -3.1603   -6.9173   -6.2492 O   0  0  0  0  0  0
   -6.8397   -9.0575   -7.5651 C   0  0  0  0  0  0
   -7.2645  -10.1485   -7.8908 O   0  0  0  0  0  0
   -7.6501   -8.1138   -7.0416 O   0  0  0  0  0  0
    3.9018    8.7407   -8.0949 H   0  0  0  0  0  0
    4.6655    7.4834   -8.7708 H   0  0  0  0  0  0
    4.1189    5.8328  -10.7330 H   0  0  0  0  0  0
    2.8934    3.6659  -10.4973 H   0  0  0  0  0  0
    0.8845   -4.0548   -8.8871 H   0  0  0  0  0  0
    1.0423   -2.4176   -4.9803 H   0  0  0  0  0  0
   -4.4105   -3.5889   -2.4811 H   0  0  0  0  0  0
   -2.1893   -6.8080   -6.1677 H   0  0  0  0  0  0
   -7.1983   -7.2977   -6.7315 H   0  0  0  0  0  0
  1  2  1  0  0  0
  2  3  1  0  0  0
  3  4  1  0  0  0
  4  5  1  0  0  0
  5  6  1  0  0  0
  5  7  1  0  0  0
  7  8  1  0  0  0
  7 39  1  0  0  0
  8  9  1  0  0  0
  8 27  1  0  0  0
  9 10  1  0  0  0
 10 11  1  0  0  0
 10 12  1  0  0  0
 12 13  1  0  0  0
 13 14  1  0  0  0
 13 26  1  0  0  0
 14 15  1  0  0  0
 15 16  1  0  0  0
 16 17  1  0  0  0
 17 18  1  0  0  0
 18 19  1  0  0  0
 18 25  1  0  0  0
 19 20  1  0  0  0
 20 21  1  0  0  0
 20 24  1  0  0  0
 21 22  1  0  0  0
 21 23  1  0  0  0
 23 51  1  0  0  0
 23 52  1  0  0  0
 24 53  1  0  0  0
 25 54  1  0  0  0
 26 55  1  0  0  0
 27 28  1  0  0  0
 28 29  2  0  0  0
 28 30  1  0  0  0
 30 31  1  0  0  0
 31 32  1  0  0  0
 31 36  1  0  0  0
 32 33  1  0  0  0
 33 34  2  0  0  0
 33 35  1  0  0  0
 35 56  1  0  0  0
 36 37  2  0  0  0
 36 38  1  0  0  0
 38 57  1  0  0  0
 39 40  1  0  0  0
 40 41  2  0  0  0
 40 42  1  0  0  0
 42 43  1  0  0  0
 43 44  1  0  0  0
 43 48  1  0  0  0
 44 45  1  0  0  0
 45 46  2  0  0  0
 45 47  1  0  0  0
 47 58  1  0  0  0
 48 49  2  0  0  0
 48 50  1  0  0  0
 50 59  1  0  0  0
M  END
>  <AUTHOR>
    GENERATED BY OPEN BABEL 2.4.1

>  <CHROM.1>
89.79137557,57.37461255,66.57294415,38.44384060,4.42669070,55.59401063,-82.37092768
151.72664034,142.56709203,31.52947358,-76.62850899,-32.79284313,130.94045916
-39.98077492,-158.42556818,-177.42697197,-159.38190644,179.66658957,-176.88565878
159.72649541,-50.46208884,146.18414189,175.36951773,-37.85127609,104.30048193
99.53938064,-11.02527352,-27.82661676,96.80419778,-176.58406931,-6.49563232
-105.22681710,118.15508169,-71.88384702,-50.45138226,115.41983887,-98.82973040
-179.03621723,-0.53722488,-2.26529547,-2.18972835,-7.92476061,0.47876320
-0.93476928,-1.10413731

>  <COMPND>
    UNNAMED

>  <MASTER>
        0    0    0    0    0    0    0    0  109    0  109    0

>  <Name>
FB1.pdb

>  <RI>
0

>  <Rbt.Current_Directory>
/cluster/tossine/FB1_39T3/p3/1_clust02

>  <Rbt.Executable>
rbdock/0.1.0

>  <Rbt.Library>
librxdock.so/0.1.0

>  <Rbt.Parameter_File>
/cluster/rxdock/data/scripts/dock.prm

>  <Rbt.Receptor>
rx_4.prm

>  <SCORE>
22.9813

>  <SCORE.INTER>
-13.8411

>  <SCORE.INTER.CONST>
1

>  <SCORE.INTER.POLAR>
-3.80849

>  <SCORE.INTER.REPUL>
0.404271

>  <SCORE.INTER.ROT>
32

>  <SCORE.INTER.VDW>
-40.3136

>  <SCORE.INTER.norm>
-0.276822

>  <SCORE.INTRA>
34.6116

>  <SCORE.INTRA.DIHEDRAL>
49.0453

>  <SCORE.INTRA.DIHEDRAL.0>
47.3121

>  <SCORE.INTRA.POLAR>
1.45327

>  <SCORE.INTRA.POLAR.0>
-1.47808

>  <SCORE.INTRA.REPUL>
0.00431075

>  <SCORE.INTRA.REPUL.0>
0

>  <SCORE.INTRA.VDW>
5.12633

>  <SCORE.INTRA.VDW.0>
-2.78316

>  <SCORE.INTRA.norm>
0.692233

>  <SCORE.RESTR>
2.21073

>  <SCORE.RESTR.CAVITY>
2.21073

>  <SCORE.RESTR.norm>
0.0442147

>  <SCORE.SYSTEM>
0

>  <SCORE.SYSTEM.CONST>
0

>  <SCORE.SYSTEM.DIHEDRAL>
0

>  <SCORE.SYSTEM.norm>
0

>  <SCORE.heavy>
50

>  <SCORE.norm>
0.459626

$$$$
