FB1.pdb
  RxDock  10072009163D
librxdock.so/0.1.0
 59 58  0  0  0  0  0  0  0  0999 V2000
   -6.0118   -5.1309  -10.0829 C   0  0  0  0  0  0
   -4.7938   -5.3665  -10.9730 C   0  0  0  0  0  0
   -3.7104   -6.1843  -10.2507 C   0  0  0  0  0  0
   -2.9662   -5.3874   -9.1503 C   0  0  0  0  0  0
   -1.8160   -6.1725   -8.4283 C   0  0  0  0  0  0
   -0.5009   -5.9296   -9.2042 C   0  0  0  0  0  0
   -1.6510   -5.7883   -6.8976 C   0  0  0  0  0  0
   -1.5053   -4.2309   -6.5519 C   0  0  0  0  0  0
   -1.8802   -3.5640   -5.1581 C   0  0  0  0  0  0
   -1.3562   -2.0121   -4.9617 C   0  0  0  0  0  0
   -1.6288   -1.5869   -3.5199 C   0  0  0  0  0  0
    0.1733   -1.7358   -5.3208 C   0  0  0  0  0  0
    0.8235   -0.2593   -5.4468 C   0  0  0  0  0  0
    0.1962    0.8611   -6.3453 C   0  0  0  0  0  0
    0.8882    1.1834   -7.7476 C   0  0  0  0  0  0
    1.5888    2.5548   -8.0984 C   0  0  0  0  0  0
    0.7180    3.7942   -8.4348 C   0  0  0  0  0  0
    1.4389    5.1968   -8.3879 C   0  0  0  0  0  0
    2.6085    5.3923   -9.3607 C   0  0  0  0  0  0
    3.3446    6.7622   -9.3628 C   0  0  0  0  0  0
    3.2288    7.7209  -10.5847 C   0  0  0  0  0  0
    1.8199    8.0367  -11.0670 C   0  0  0  0  0  0
    3.9978    8.9589  -10.3560 N   0  0  0  0  0  0
    2.7618    7.4944   -8.2546 O   0  0  0  0  0  0
    0.4578    6.2066   -8.6475 O   0  0  0  0  0  0
    0.7963    0.2717   -4.1112 O   0  0  0  0  0  0
   -0.1025   -3.9020   -6.7424 O   0  0  0  0  0  0
    0.2441   -3.3428   -7.9309 C   0  0  0  0  0  0
    1.3756   -3.1781   -8.3457 O   0  0  0  0  0  0
   -1.0123   -3.0492   -8.7032 C   0  0  0  0  0  0
   -1.5444   -1.6300   -8.4475 C   0  0  0  0  0  0
   -1.8776   -0.8835   -9.7456 C   0  0  0  0  0  0
   -2.5086   -1.8087  -10.7600 C   0  0  0  0  0  0
   -3.0996   -2.8408  -10.4613 O   0  0  0  0  0  0
   -2.3626   -1.3923  -12.0265 O   0  0  0  0  0  0
   -2.8126   -1.8014   -7.5998 C   0  0  0  0  0  0
   -3.0880   -1.0746   -6.6573 O   0  0  0  0  0  0
   -3.5730   -2.8486   -7.9478 O   0  0  0  0  0  0
   -2.6879   -6.4461   -6.0657 O   0  0  0  0  0  0
   -2.6038   -7.8142   -5.8675 C   0  0  0  0  0  0
   -1.5607   -8.4289   -5.6875 O   0  0  0  0  0  0
   -3.9791   -8.4939   -5.8964 C   0  0  0  0  0  0
   -4.0776   -9.8558   -5.1413 C   0  0  0  0  0  0
   -5.1291   -9.9893   -4.0246 C   0  0  0  0  0  0
   -4.7716   -9.2180   -2.7870 C   0  0  0  0  0  0
   -4.6254   -8.0053   -2.7194 O   0  0  0  0  0  0
   -4.6389  -10.0078   -1.7105 O   0  0  0  0  0  0
   -4.2262  -11.0807   -6.0522 C   0  0  0  0  0  0
   -5.2934  -11.4354   -6.5127 O   0  0  0  0  0  0
   -3.0719  -11.6860   -6.4021 O   0  0  0  0  0  0
    4.9020    8.7205   -9.9509 H   0  0  0  0  0  0
    3.5238    9.5097   -9.6366 H   0  0  0  0  0  0
    1.8198    7.6076   -8.5019 H   0  0  0  0  0  0
   -0.1070    6.2922   -7.8574 H   0  0  0  0  0  0
    1.3739    1.0529   -4.0864 H   0  0  0  0  0  0
   -2.8142   -1.9376  -12.6990 H   0  0  0  0  0  0
   -3.5061   -3.1052   -8.9009 H   0  0  0  0  0  0
   -5.3688  -10.6612   -1.7493 H   0  0  0  0  0  0
   -2.2661  -11.3428   -5.9560 H   0  0  0  0  0  0
  1  2  1  0  0  0
  2  3  1  0  0  0
  3  4  1  0  0  0
  4  5  1  0  0  0
  5  6  1  0  0  0
  5  7  1  0  0  0
  7  8  1  0  0  0
  7 39  1  0  0  0
  8  9  1  0  0  0
  8 27  1  0  0  0
  9 10  1  0  0  0
 10 11  1  0  0  0
 10 12  1  0  0  0
 12 13  1  0  0  0
 13 14  1  0  0  0
 13 26  1  0  0  0
 14 15  1  0  0  0
 15 16  1  0  0  0
 16 17  1  0  0  0
 17 18  1  0  0  0
 18 19  1  0  0  0
 18 25  1  0  0  0
 19 20  1  0  0  0
 20 21  1  0  0  0
 20 24  1  0  0  0
 21 22  1  0  0  0
 21 23  1  0  0  0
 23 51  1  0  0  0
 23 52  1  0  0  0
 24 53  1  0  0  0
 25 54  1  0  0  0
 26 55  1  0  0  0
 27 28  1  0  0  0
 28 29  2  0  0  0
 28 30  1  0  0  0
 30 31  1  0  0  0
 31 32  1  0  0  0
 31 36  1  0  0  0
 32 33  1  0  0  0
 33 34  2  0  0  0
 33 35  1  0  0  0
 35 56  1  0  0  0
 36 37  2  0  0  0
 36 38  1  0  0  0
 38 57  1  0  0  0
 39 40  1  0  0  0
 40 41  2  0  0  0
 40 42  1  0  0  0
 42 43  1  0  0  0
 43 44  1  0  0  0
 43 48  1  0  0  0
 44 45  1  0  0  0
 45 46  2  0  0  0
 45 47  1  0  0  0
 47 58  1  0  0  0
 48 49  2  0  0  0
 48 50  1  0  0  0
 50 59  1  0  0  0
M  END
>  <AUTHOR>
    GENERATED BY OPEN BABEL 2.4.1

>  <CHROM.1>
-72.37771363,-177.78312452,90.03295973,-52.16964555,155.22440181,71.03064530
168.24408818,97.23041663,-172.53795929,168.98821755,-51.86677155,-103.42081690
165.74875962,-114.65977592,-76.42613481,163.85695711,61.17005994,179.45981856
73.36270596,-111.54577713,51.41493590,-63.58906792,43.66412539,-168.76212942
91.60795023,131.38267163,38.83271095,138.75220211,23.86405597,-175.89714476
-28.28486473,39.10306850,-156.23427312,122.98613280,-72.22714560,-82.54662758
61.62348212,-41.58891555,6.67748514,-1.40023775,-2.55159195,-7.41337976,2.47694738
1.08878689,2.06302791

>  <COMPND>
    UNNAMED

>  <MASTER>
        0    0    0    0    0    0    0    0  109    0  109    0

>  <Name>
FB1.pdb

>  <RI>
0

>  <Rbt.Current_Directory>
/cluster/tossine/FB1_39T3/p3/1_clust02

>  <Rbt.Executable>
rbdock/0.1.0

>  <Rbt.Library>
librxdock.so/0.1.0

>  <Rbt.Parameter_File>
/cluster/rxdock/data/scripts/dock.prm

>  <Rbt.Receptor>
rx_3.prm

>  <SCORE>
47.7354

>  <SCORE.INTER>
11.7065

>  <SCORE.INTER.CONST>
1

>  <SCORE.INTER.POLAR>
-1.36901

>  <SCORE.INTER.REPUL>
0.221971

>  <SCORE.INTER.ROT>
32

>  <SCORE.INTER.VDW>
-22.1487

>  <SCORE.INTER.norm>
0.23413

>  <SCORE.INTRA>
33.7551

>  <SCORE.INTRA.DIHEDRAL>
37.0884

>  <SCORE.INTRA.DIHEDRAL.0>
47.3121

>  <SCORE.INTRA.POLAR>
0.237729

>  <SCORE.INTRA.POLAR.0>
-1.47808

>  <SCORE.INTRA.REPUL>
0

>  <SCORE.INTRA.REPUL.0>
0

>  <SCORE.INTRA.VDW>
14.4027

>  <SCORE.INTRA.VDW.0>
-2.78316

>  <SCORE.INTRA.norm>
0.675103

>  <SCORE.RESTR>
2.2737

>  <SCORE.RESTR.CAVITY>
2.2737

>  <SCORE.RESTR.norm>
0.0454739

>  <SCORE.SYSTEM>
0

>  <SCORE.SYSTEM.CONST>
0

>  <SCORE.SYSTEM.DIHEDRAL>
0

>  <SCORE.SYSTEM.norm>
0

>  <SCORE.heavy>
50

>  <SCORE.norm>
0.954707

$$$$
