FB1.pdb
  RxDock  10072008003D
librxdock.so/0.1.0
 59 58  0  0  0  0  0  0  0  0999 V2000
  -11.3725   -7.4433    1.8595 C   0  0  0  0  0  0
  -12.7521   -7.7219    1.2676 C   0  0  0  0  0  0
  -13.2498   -6.5490    0.4069 C   0  0  0  0  0  0
  -13.6793   -6.9695   -1.0209 C   0  0  0  0  0  0
  -13.8746   -5.7838   -2.0291 C   0  0  0  0  0  0
  -15.1479   -5.0061   -1.6231 C   0  0  0  0  0  0
  -12.6215   -4.8144   -2.1170 C   0  0  0  0  0  0
  -12.3846   -4.0592   -3.5098 C   0  0  0  0  0  0
  -12.9375   -4.5444   -4.9194 C   0  0  0  0  0  0
  -11.8526   -5.3669   -5.8509 C   0  0  0  0  0  0
  -12.6207   -6.3316   -6.7528 C   0  0  0  0  0  0
  -10.8681   -4.4765   -6.7356 C   0  0  0  0  0  0
  -10.0519   -5.0284   -8.0193 C   0  0  0  0  0  0
   -8.8650   -4.2344   -8.6651 C   0  0  0  0  0  0
   -9.2054   -2.9466   -9.5453 C   0  0  0  0  0  0
   -8.1206   -2.0364  -10.2450 C   0  0  0  0  0  0
   -7.5082   -2.4808  -11.5996 C   0  0  0  0  0  0
   -6.1177   -3.2237  -11.5354 C   0  0  0  0  0  0
   -4.9214   -2.3867  -11.0656 C   0  0  0  0  0  0
   -4.5805   -1.0851  -11.8453 C   0  0  0  0  0  0
   -3.6448   -0.0093  -11.2187 C   0  0  0  0  0  0
   -2.2631   -0.4812  -10.7879 C   0  0  0  0  0  0
   -3.5488    1.1762  -12.0915 N   0  0  0  0  0  0
   -3.8857   -1.5403  -13.0344 O   0  0  0  0  0  0
   -6.2577   -4.3481  -10.6603 O   0  0  0  0  0  0
   -9.4785   -6.2732   -7.5855 O   0  0  0  0  0  0
  -12.9360   -2.7243   -3.3471 O   0  0  0  0  0  0
  -12.4109   -1.7411   -4.1236 C   0  0  0  0  0  0
  -11.6645   -1.8945   -5.0716 O   0  0  0  0  0  0
  -12.9876   -0.4251   -3.6799 C   0  0  0  0  0  0
  -11.9987    0.4000   -2.8409 C   0  0  0  0  0  0
  -12.0014    1.8862   -3.2208 C   0  0  0  0  0  0
  -11.3113    2.1114   -4.5461 C   0  0  0  0  0  0
  -10.8201    1.2099   -5.2168 O   0  0  0  0  0  0
  -11.2873    3.3979   -4.9243 O   0  0  0  0  0  0
  -12.4404    0.2302   -1.3807 C   0  0  0  0  0  0
  -13.4028   -0.4453   -1.0492 O   0  0  0  0  0  0
  -11.7110    0.9263   -0.4978 O   0  0  0  0  0  0
  -12.5861   -3.8792   -0.9664 O   0  0  0  0  0  0
  -11.3889   -3.7102   -0.2909 C   0  0  0  0  0  0
  -10.4817   -4.5317   -0.2656 O   0  0  0  0  0  0
  -11.3142   -2.3612    0.4362 C   0  0  0  0  0  0
  -12.2750   -2.1940    1.6541 C   0  0  0  0  0  0
  -12.3953   -3.3649    2.6466 C   0  0  0  0  0  0
  -13.8160   -3.7877    2.8855 C   0  0  0  0  0  0
  -14.7833   -3.0407    2.9396 O   0  0  0  0  0  0
  -13.9399   -5.1168    3.0219 O   0  0  0  0  0  0
  -12.0426   -0.9225    2.4798 C   0  0  0  0  0  0
  -11.1477   -0.8192    3.2953 O   0  0  0  0  0  0
  -12.8348    0.1243    2.1668 O   0  0  0  0  0  0
   -4.4528    1.6459  -12.1175 H   0  0  0  0  0  0
   -3.3869    0.8630  -13.0513 H   0  0  0  0  0  0
   -4.5726   -2.0024  -13.5598 H   0  0  0  0  0  0
   -6.3587   -4.0144   -9.7499 H   0  0  0  0  0  0
   -8.9285   -6.0949   -6.8043 H   0  0  0  0  0  0
  -10.7770    3.5842   -5.7357 H   0  0  0  0  0  0
  -11.7861    0.6095    0.4364 H   0  0  0  0  0  0
  -13.0306   -5.4810    3.0655 H   0  0  0  0  0  0
  -12.6626    0.9477    2.6754 H   0  0  0  0  0  0
  1  2  1  0  0  0
  2  3  1  0  0  0
  3  4  1  0  0  0
  4  5  1  0  0  0
  5  6  1  0  0  0
  5  7  1  0  0  0
  7  8  1  0  0  0
  7 39  1  0  0  0
  8  9  1  0  0  0
  8 27  1  0  0  0
  9 10  1  0  0  0
 10 11  1  0  0  0
 10 12  1  0  0  0
 12 13  1  0  0  0
 13 14  1  0  0  0
 13 26  1  0  0  0
 14 15  1  0  0  0
 15 16  1  0  0  0
 16 17  1  0  0  0
 17 18  1  0  0  0
 18 19  1  0  0  0
 18 25  1  0  0  0
 19 20  1  0  0  0
 20 21  1  0  0  0
 20 24  1  0  0  0
 21 22  1  0  0  0
 21 23  1  0  0  0
 23 51  1  0  0  0
 23 52  1  0  0  0
 24 53  1  0  0  0
 25 54  1  0  0  0
 26 55  1  0  0  0
 27 28  1  0  0  0
 28 29  2  0  0  0
 28 30  1  0  0  0
 30 31  1  0  0  0
 31 32  1  0  0  0
 31 36  1  0  0  0
 32 33  1  0  0  0
 33 34  2  0  0  0
 33 35  1  0  0  0
 35 56  1  0  0  0
 36 37  2  0  0  0
 36 38  1  0  0  0
 38 57  1  0  0  0
 39 40  1  0  0  0
 40 41  2  0  0  0
 40 42  1  0  0  0
 42 43  1  0  0  0
 43 44  1  0  0  0
 43 48  1  0  0  0
 44 45  1  0  0  0
 45 46  2  0  0  0
 45 47  1  0  0  0
 47 58  1  0  0  0
 48 49  2  0  0  0
 48 50  1  0  0  0
 50 59  1  0  0  0
M  END
>  <AUTHOR>
    GENERATED BY OPEN BABEL 2.4.1

>  <CHROM.1>
126.74470888,-166.50175506,-70.83274649,151.14606345,-22.70220513,132.90640448
-98.47057090,153.92771747,151.71842075,-160.95903990,-165.96088629,-74.42667271
-57.46170118,179.27390316,81.11543410,-97.04987973,-66.95754771,-56.88149249
-69.89351868,163.71119425,56.25174318,68.49759653,67.23420567,11.30253516
103.44286745,137.45072011,-73.58409683,-0.13728088,0.06177092,174.63933522
-161.15840649,-24.13037061,68.61886675,44.11360399,-127.36338845,-78.94601951
-36.39043172,8.43458058,-177.93134611,-10.68840304,-2.67084820,-3.98252372
2.95503610,1.02660077,0.35300691

>  <COMPND>
    UNNAMED

>  <MASTER>
        0    0    0    0    0    0    0    0  109    0  109    0

>  <Name>
FB1.pdb

>  <RI>
0

>  <Rbt.Current_Directory>
/cluster/tossine/FB1_39T3/p3/1_clust02

>  <Rbt.Executable>
rbdock/0.1.0

>  <Rbt.Library>
librxdock.so/0.1.0

>  <Rbt.Parameter_File>
/cluster/rxdock/data/scripts/dock.prm

>  <Rbt.Receptor>
rx_1.prm

>  <SCORE>
11.6481

>  <SCORE.INTER>
-2.36925

>  <SCORE.INTER.CONST>
1

>  <SCORE.INTER.POLAR>
-2.15886

>  <SCORE.INTER.REPUL>
0.076952

>  <SCORE.INTER.ROT>
32

>  <SCORE.INTER.VDW>
-32.8139

>  <SCORE.INTER.norm>
-0.047385

>  <SCORE.INTRA>
11.9434

>  <SCORE.INTRA.DIHEDRAL>
23.4896

>  <SCORE.INTRA.DIHEDRAL.0>
47.3121

>  <SCORE.INTRA.POLAR>
0.941634

>  <SCORE.INTRA.POLAR.0>
-1.47808

>  <SCORE.INTRA.REPUL>
0

>  <SCORE.INTRA.REPUL.0>
0

>  <SCORE.INTRA.VDW>
-3.0029

>  <SCORE.INTRA.VDW.0>
-2.78316

>  <SCORE.INTRA.norm>
0.238869

>  <SCORE.RESTR>
2.07396

>  <SCORE.RESTR.CAVITY>
2.07396

>  <SCORE.RESTR.norm>
0.0414792

>  <SCORE.SYSTEM>
0

>  <SCORE.SYSTEM.CONST>
0

>  <SCORE.SYSTEM.DIHEDRAL>
0

>  <SCORE.SYSTEM.norm>
0

>  <SCORE.heavy>
50

>  <SCORE.norm>
0.232963

$$$$
