FB1.pdb
  RxDock  10072009433D
librxdock.so/0.1.0
 59 58  0  0  0  0  0  0  0  0999 V2000
  -11.7387   -2.4995    6.8189 C   0  0  0  0  0  0
  -10.8293   -3.1154    7.8794 C   0  0  0  0  0  0
   -9.5986   -2.2357    8.1548 C   0  0  0  0  0  0
   -8.4828   -2.3842    7.0905 C   0  0  0  0  0  0
   -8.8932   -1.9581    5.6378 C   0  0  0  0  0  0
   -7.6752   -1.2809    4.9681 C   0  0  0  0  0  0
   -9.4311   -3.1607    4.7533 C   0  0  0  0  0  0
  -10.6846   -2.8584    3.8028 C   0  0  0  0  0  0
  -11.1001   -1.4206    3.2659 C   0  0  0  0  0  0
  -12.2454   -1.4214    2.0786 C   0  0  0  0  0  0
  -12.9486   -0.0650    2.0820 C   0  0  0  0  0  0
  -11.7308   -1.7533    0.6055 C   0  0  0  0  0  0
  -12.2971   -1.0451   -0.7348 C   0  0  0  0  0  0
  -11.7554    0.3322   -1.2502 C   0  0  0  0  0  0
  -11.6668    1.5459   -0.2166 C   0  0  0  0  0  0
  -11.1213    2.9833   -0.5784 C   0  0  0  0  0  0
   -9.9795    3.1281   -1.6190 C   0  0  0  0  0  0
  -10.3965    3.0543   -3.1388 C   0  0  0  0  0  0
  -10.2270    4.3429   -3.9532 C   0  0  0  0  0  0
   -8.8024    4.9536   -4.0790 C   0  0  0  0  0  0
   -8.5717    6.2639   -4.8886 C   0  0  0  0  0  0
   -7.3431    7.0824   -4.5171 C   0  0  0  0  0  0
   -8.6098    5.9988   -6.3393 N   0  0  0  0  0  0
   -8.4213    5.2810   -2.7183 O   0  0  0  0  0  0
   -9.6250    2.0197   -3.7587 O   0  0  0  0  0  0
  -12.0169   -1.9779   -1.7921 O   0  0  0  0  0  0
  -10.4812   -3.6471    2.5990 O   0  0  0  0  0  0
  -11.4174   -4.5890    2.3131 C   0  0  0  0  0  0
  -12.5786   -4.5822    2.6749 O   0  0  0  0  0  0
  -10.8063   -5.6005    1.3832 C   0  0  0  0  0  0
  -11.4043   -5.5391   -0.0314 C   0  0  0  0  0  0
  -10.5310   -4.7379   -1.0054 C   0  0  0  0  0  0
  -10.9084   -5.0267   -2.4398 C   0  0  0  0  0  0
  -11.6123   -4.2864   -3.1182 O   0  0  0  0  0  0
  -10.3968   -6.1755   -2.9061 O   0  0  0  0  0  0
  -11.5192   -6.9948   -0.5044 C   0  0  0  0  0  0
  -12.5897   -7.5562   -0.6812 O   0  0  0  0  0  0
  -10.3440   -7.6196   -0.6616 O   0  0  0  0  0  0
   -8.3251   -3.8217    4.0187 O   0  0  0  0  0  0
   -7.3560   -4.4899    4.7484 C   0  0  0  0  0  0
   -7.1333   -4.3105    5.9387 O   0  0  0  0  0  0
   -6.5749   -5.4983    3.8957 C   0  0  0  0  0  0
   -5.3124   -6.1206    4.5691 C   0  0  0  0  0  0
   -5.5204   -7.0341    5.7908 C   0  0  0  0  0  0
   -4.2365   -7.3866    6.4850 C   0  0  0  0  0  0
   -3.7250   -8.4973    6.5183 O   0  0  0  0  0  0
   -3.6647   -6.3262    7.0759 O   0  0  0  0  0  0
   -4.3744   -6.8588    3.6060 C   0  0  0  0  0  0
   -3.3506   -6.3665    3.1744 O   0  0  0  0  0  0
   -4.7028   -8.1418    3.3470 O   0  0  0  0  0  0
   -8.6927    6.8834   -6.8384 H   0  0  0  0  0  0
   -9.4710    5.4922   -6.5563 H   0  0  0  0  0  0
   -9.0465    5.9871   -2.4502 H   0  0  0  0  0  0
   -8.6824    2.2576   -3.6852 H   0  0  0  0  0  0
  -11.0595   -2.1446   -1.8003 H   0  0  0  0  0  0
  -10.6052   -6.3762   -3.8387 H   0  0  0  0  0  0
   -9.5669   -7.1297   -0.2943 H   0  0  0  0  0  0
   -4.3277   -5.6041    7.0603 H   0  0  0  0  0  0
   -4.0902   -8.6182    2.7437 H   0  0  0  0  0  0
  1  2  1  0  0  0
  2  3  1  0  0  0
  3  4  1  0  0  0
  4  5  1  0  0  0
  5  6  1  0  0  0
  5  7  1  0  0  0
  7  8  1  0  0  0
  7 39  1  0  0  0
  8  9  1  0  0  0
  8 27  1  0  0  0
  9 10  1  0  0  0
 10 11  1  0  0  0
 10 12  1  0  0  0
 12 13  1  0  0  0
 13 14  1  0  0  0
 13 26  1  0  0  0
 14 15  1  0  0  0
 15 16  1  0  0  0
 16 17  1  0  0  0
 17 18  1  0  0  0
 18 19  1  0  0  0
 18 25  1  0  0  0
 19 20  1  0  0  0
 20 21  1  0  0  0
 20 24  1  0  0  0
 21 22  1  0  0  0
 21 23  1  0  0  0
 23 51  1  0  0  0
 23 52  1  0  0  0
 24 53  1  0  0  0
 25 54  1  0  0  0
 26 55  1  0  0  0
 27 28  1  0  0  0
 28 29  2  0  0  0
 28 30  1  0  0  0
 30 31  1  0  0  0
 31 32  1  0  0  0
 31 36  1  0  0  0
 32 33  1  0  0  0
 33 34  2  0  0  0
 33 35  1  0  0  0
 35 56  1  0  0  0
 36 37  2  0  0  0
 36 38  1  0  0  0
 38 57  1  0  0  0
 39 40  1  0  0  0
 40 41  2  0  0  0
 40 42  1  0  0  0
 42 43  1  0  0  0
 43 44  1  0  0  0
 43 48  1  0  0  0
 44 45  1  0  0  0
 45 46  2  0  0  0
 45 47  1  0  0  0
 47 58  1  0  0  0
 48 49  2  0  0  0
 48 50  1  0  0  0
 50 59  1  0  0  0
M  END
>  <AUTHOR>
    GENERATED BY OPEN BABEL 2.4.1

>  <CHROM.1>
-79.37285937,62.18664412,143.33703201,139.84636256,23.38037134,65.73474429
168.66826554,118.35924543,156.51672178,-142.76312841,84.38360440,-50.04802816
-57.59923803,178.92960685,-33.53653948,80.11896046,113.34614852,60.17338263
-61.17152932,-179.74564560,156.00507788,-65.57246228,165.87750239,24.90257184
-110.90811073,98.44958279,163.25553511,112.30320115,100.39564179,-178.46351215
10.98848268,-19.46975655,170.14550086,65.97872827,-170.50412041,100.63653833
-111.66360305,11.23028535,-178.83116820,-9.27414125,-2.43832385,1.43907451
-1.15304479,-0.94724509,-0.38050503

>  <COMPND>
    UNNAMED

>  <MASTER>
        0    0    0    0    0    0    0    0  109    0  109    0

>  <Name>
FB1.pdb

>  <RI>
0

>  <Rbt.Current_Directory>
/cluster/tossine/FB1_39T3/p3/1_clust02

>  <Rbt.Executable>
rbdock/0.1.0

>  <Rbt.Library>
librxdock.so/0.1.0

>  <Rbt.Parameter_File>
/cluster/rxdock/data/scripts/dock.prm

>  <Rbt.Receptor>
rx_4.prm

>  <SCORE>
21.0332

>  <SCORE.INTER>
2.19998

>  <SCORE.INTER.CONST>
1

>  <SCORE.INTER.POLAR>
-0.640178

>  <SCORE.INTER.REPUL>
0.0196148

>  <SCORE.INTER.ROT>
32

>  <SCORE.INTER.VDW>
-33.1215

>  <SCORE.INTER.norm>
0.0439995

>  <SCORE.INTRA>
17.4557

>  <SCORE.INTRA.DIHEDRAL>
17.6039

>  <SCORE.INTRA.DIHEDRAL.0>
47.3121

>  <SCORE.INTRA.POLAR>
1.47808

>  <SCORE.INTRA.POLAR.0>
-1.47808

>  <SCORE.INTRA.REPUL>
0

>  <SCORE.INTRA.REPUL.0>
0

>  <SCORE.INTRA.VDW>
3.62828

>  <SCORE.INTRA.VDW.0>
-2.78316

>  <SCORE.INTRA.norm>
0.349114

>  <SCORE.RESTR>
1.37749

>  <SCORE.RESTR.CAVITY>
1.37749

>  <SCORE.RESTR.norm>
0.0275499

>  <SCORE.SYSTEM>
0

>  <SCORE.SYSTEM.CONST>
0

>  <SCORE.SYSTEM.DIHEDRAL>
0

>  <SCORE.SYSTEM.norm>
0

>  <SCORE.heavy>
50

>  <SCORE.norm>
0.420663

$$$$
