FB1.pdb
  RxDock  10072009523D
librxdock.so/0.1.0
 59 58  0  0  0  0  0  0  0  0999 V2000
   -7.4038   -8.1742    2.7510 C   0  0  0  0  0  0
   -6.3448   -7.7206    3.7531 C   0  0  0  0  0  0
   -6.2829   -6.1881    3.8615 C   0  0  0  0  0  0
   -7.6689   -5.5048    3.7529 C   0  0  0  0  0  0
   -8.7519   -6.0430    4.7518 C   0  0  0  0  0  0
   -8.3728   -5.5769    6.1765 C   0  0  0  0  0  0
  -10.2298   -5.5979    4.3837 C   0  0  0  0  0  0
  -10.4886   -4.0287    4.1916 C   0  0  0  0  0  0
  -11.9195   -3.3382    4.1297 C   0  0  0  0  0  0
  -12.5546   -3.1794    2.6155 C   0  0  0  0  0  0
  -14.0559   -2.9268    2.7432 C   0  0  0  0  0  0
  -11.8996   -2.0550    1.6927 C   0  0  0  0  0  0
  -12.2240   -0.4747    1.8190 C   0  0  0  0  0  0
  -13.5359    0.1621    1.2451 C   0  0  0  0  0  0
  -13.7872    0.0889   -0.3299 C   0  0  0  0  0  0
  -13.0490   -0.9134   -1.3019 C   0  0  0  0  0  0
  -11.9348   -0.3845   -2.2435 C   0  0  0  0  0  0
  -12.4062    0.2366   -3.6151 C   0  0  0  0  0  0
  -13.0244    1.6387   -3.5492 C   0  0  0  0  0  0
  -12.0752    2.8677   -3.6322 C   0  0  0  0  0  0
  -10.7730    2.9209   -2.7796 C   0  0  0  0  0  0
   -9.6863    3.8719   -3.2612 C   0  0  0  0  0  0
  -11.0856    3.1544   -1.3569 N   0  0  0  0  0  0
  -11.6229    2.8904   -5.0102 O   0  0  0  0  0  0
  -11.2757    0.2787   -4.4925 O   0  0  0  0  0  0
  -12.2699   -0.2187    3.2328 O   0  0  0  0  0  0
   -9.8177   -3.3678    5.2987 O   0  0  0  0  0  0
   -9.4521   -2.0727    5.1138 C   0  0  0  0  0  0
   -9.9791   -1.2770    4.3598 O   0  0  0  0  0  0
   -8.3427   -1.7492    6.0761 C   0  0  0  0  0  0
   -8.3263   -2.6861    7.2946 C   0  0  0  0  0  0
   -7.0008   -2.6271    8.0646 C   0  0  0  0  0  0
   -6.0736   -3.7420    7.6399 C   0  0  0  0  0  0
   -5.7182   -4.6494    8.3843 O   0  0  0  0  0  0
   -5.6737   -3.6472    6.3631 O   0  0  0  0  0  0
   -9.4791   -2.2247    8.1970 C   0  0  0  0  0  0
   -9.3058   -1.6100    9.2384 O   0  0  0  0  0  0
  -10.6953   -2.5952    7.7735 O   0  0  0  0  0  0
  -10.7603   -6.3903    3.2476 O   0  0  0  0  0  0
  -10.6087   -5.8878    1.9659 C   0  0  0  0  0  0
  -10.4048   -4.7107    1.6990 O   0  0  0  0  0  0
  -10.7241   -6.9792    0.8936 C   0  0  0  0  0  0
  -11.6784   -6.6591   -0.2987 C   0  0  0  0  0  0
  -12.2928   -5.2495   -0.3751 C   0  0  0  0  0  0
  -11.4305   -4.2735   -1.1224 C   0  0  0  0  0  0
  -10.7780   -3.3683   -0.6209 O   0  0  0  0  0  0
  -11.4233   -4.5026   -2.4444 O   0  0  0  0  0  0
  -11.0982   -6.9759   -1.6826 C   0  0  0  0  0  0
   -9.9043   -7.0014   -1.9080 O   0  0  0  0  0  0
  -11.9999   -7.3332   -2.6210 O   0  0  0  0  0  0
  -12.0253    2.8122   -1.1608 H   0  0  0  0  0  0
  -11.1332    4.1627   -1.1941 H   0  0  0  0  0  0
  -11.1557    2.0369   -5.1306 H   0  0  0  0  0  0
  -10.5344    0.6932   -4.0138 H   0  0  0  0  0  0
  -11.3905   -0.4068    3.6012 H   0  0  0  0  0  0
   -5.7962   -2.7699    5.9523 H   0  0  0  0  0  0
  -10.7081   -3.0096    6.8752 H   0  0  0  0  0  0
  -10.6976   -3.9607   -2.8198 H   0  0  0  0  0  0
  -12.9379   -7.3228   -2.3272 H   0  0  0  0  0  0
  1  2  1  0  0  0
  2  3  1  0  0  0
  3  4  1  0  0  0
  4  5  1  0  0  0
  5  6  1  0  0  0
  5  7  1  0  0  0
  7  8  1  0  0  0
  7 39  1  0  0  0
  8  9  1  0  0  0
  8 27  1  0  0  0
  9 10  1  0  0  0
 10 11  1  0  0  0
 10 12  1  0  0  0
 12 13  1  0  0  0
 13 14  1  0  0  0
 13 26  1  0  0  0
 14 15  1  0  0  0
 15 16  1  0  0  0
 16 17  1  0  0  0
 17 18  1  0  0  0
 18 19  1  0  0  0
 18 25  1  0  0  0
 19 20  1  0  0  0
 20 21  1  0  0  0
 20 24  1  0  0  0
 21 22  1  0  0  0
 21 23  1  0  0  0
 23 51  1  0  0  0
 23 52  1  0  0  0
 24 53  1  0  0  0
 25 54  1  0  0  0
 26 55  1  0  0  0
 27 28  1  0  0  0
 28 29  2  0  0  0
 28 30  1  0  0  0
 30 31  1  0  0  0
 31 32  1  0  0  0
 31 36  1  0  0  0
 32 33  1  0  0  0
 33 34  2  0  0  0
 33 35  1  0  0  0
 35 56  1  0  0  0
 36 37  2  0  0  0
 36 38  1  0  0  0
 38 57  1  0  0  0
 39 40  1  0  0  0
 40 41  2  0  0  0
 40 42  1  0  0  0
 42 43  1  0  0  0
 43 44  1  0  0  0
 43 48  1  0  0  0
 44 45  1  0  0  0
 45 46  2  0  0  0
 45 47  1  0  0  0
 47 58  1  0  0  0
 48 49  2  0  0  0
 48 50  1  0  0  0
 50 59  1  0  0  0
M  END
>  <AUTHOR>
    GENERATED BY OPEN BABEL 2.4.1

>  <CHROM.1>
36.68484840,53.63840963,70.77387381,-53.89405054,-166.29682715,-92.98746552
-91.73828727,155.73206019,162.32720332,-78.53762234,-77.92947356,-62.38118336
62.78038427,18.35931718,-105.53509601,-84.48579219,75.41531031,87.46689229
-49.83127448,-46.37201836,159.03637405,-60.97409915,25.93787498,26.43007756
-22.74703358,163.98371778,-96.33355309,-105.89364536,-114.89638823,17.40663433
-7.91730289,-20.61756383,131.26148638,6.28108333,88.50805198,-25.46775603
-106.82384132,-167.82074940,2.02305581,-10.34834833,-2.88979281,1.96802189
0.08308472,1.20937394,-2.74092421

>  <COMPND>
    UNNAMED

>  <MASTER>
        0    0    0    0    0    0    0    0  109    0  109    0

>  <Name>
FB1.pdb

>  <RI>
0

>  <Rbt.Current_Directory>
/cluster/tossine/FB1_39T3/p3/1_clust02

>  <Rbt.Executable>
rbdock/0.1.0

>  <Rbt.Library>
librxdock.so/0.1.0

>  <Rbt.Parameter_File>
/cluster/rxdock/data/scripts/dock.prm

>  <Rbt.Receptor>
rx_4.prm

>  <SCORE>
22.2252

>  <SCORE.INTER>
4.90994

>  <SCORE.INTER.CONST>
1

>  <SCORE.INTER.POLAR>
-3.30954

>  <SCORE.INTER.REPUL>
1.55933

>  <SCORE.INTER.ROT>
32

>  <SCORE.INTER.VDW>
-29.0343

>  <SCORE.INTER.norm>
0.0981988

>  <SCORE.INTRA>
12.2061

>  <SCORE.INTRA.DIHEDRAL>
22.1845

>  <SCORE.INTRA.DIHEDRAL.0>
47.3121

>  <SCORE.INTRA.POLAR>
-0.780884

>  <SCORE.INTRA.POLAR.0>
-1.47808

>  <SCORE.INTRA.REPUL>
0

>  <SCORE.INTRA.REPUL.0>
0

>  <SCORE.INTRA.VDW>
3.76881

>  <SCORE.INTRA.VDW.0>
-2.78316

>  <SCORE.INTRA.norm>
0.244121

>  <SCORE.RESTR>
5.10916

>  <SCORE.RESTR.CAVITY>
5.10916

>  <SCORE.RESTR.norm>
0.102183

>  <SCORE.SYSTEM>
0

>  <SCORE.SYSTEM.CONST>
0

>  <SCORE.SYSTEM.DIHEDRAL>
0

>  <SCORE.SYSTEM.norm>
0

>  <SCORE.heavy>
50

>  <SCORE.norm>
0.444503

$$$$
