FB1.pdb
  RxDock  10072009153D
librxdock.so/0.1.0
 59 58  0  0  0  0  0  0  0  0999 V2000
    3.8831    9.7187  -11.1309 C   0  0  0  0  0  0
    2.8816    8.5947  -11.3860 C   0  0  0  0  0  0
    1.6072    8.7654  -10.5426 C   0  0  0  0  0  0
    0.6781    7.5261  -10.5699 C   0  0  0  0  0  0
    1.3025    6.2179   -9.9707 C   0  0  0  0  0  0
    1.4461    6.4042   -8.4425 C   0  0  0  0  0  0
    0.4720    4.9082  -10.3071 C   0  0  0  0  0  0
    0.8802    3.5698   -9.5273 C   0  0  0  0  0  0
    0.3065    3.1237   -8.1130 C   0  0  0  0  0  0
    1.0899    1.8538   -7.4094 C   0  0  0  0  0  0
    2.5386    2.2623   -7.1478 C   0  0  0  0  0  0
    0.4434    1.2860   -6.0661 C   0  0  0  0  0  0
   -0.7590    0.2038   -6.0244 C   0  0  0  0  0  0
   -0.8447   -0.9960   -7.0290 C   0  0  0  0  0  0
   -0.4884   -0.7271   -8.5620 C   0  0  0  0  0  0
   -0.9938   -1.6212   -9.7618 C   0  0  0  0  0  0
   -1.1674   -3.1493   -9.5565 C   0  0  0  0  0  0
   -2.6429   -3.6714   -9.3580 C   0  0  0  0  0  0
   -2.7964   -5.1554   -9.0018 C   0  0  0  0  0  0
   -2.7556   -5.5615   -7.5012 C   0  0  0  0  0  0
   -3.2124   -6.9812   -7.0529 C   0  0  0  0  0  0
   -3.1551   -7.2713   -5.5596 C   0  0  0  0  0  0
   -4.5435   -7.3027   -7.6018 N   0  0  0  0  0  0
   -1.3534   -5.4861   -7.1380 O   0  0  0  0  0  0
   -3.2526   -2.8903   -8.3247 O   0  0  0  0  0  0
   -0.6663   -0.4017   -4.7239 O   0  0  0  0  0  0
    0.5502    2.4663  -10.4137 O   0  0  0  0  0  0
    1.4742    2.1305  -11.3511 C   0  0  0  0  0  0
    1.3300    2.1905  -12.5573 O   0  0  0  0  0  0
    2.7528    1.7643  -10.6492 C   0  0  0  0  0  0
    2.6686    0.4026   -9.9413 C   0  0  0  0  0  0
    1.6568   -0.5426  -10.6017 C   0  0  0  0  0  0
    1.8555   -1.9660  -10.1351 C   0  0  0  0  0  0
    1.8215   -2.9363  -10.8842 O   0  0  0  0  0  0
    2.0758   -2.0701   -8.8162 O   0  0  0  0  0  0
    4.0781   -0.2003  -10.0177 C   0  0  0  0  0  0
    4.5067   -0.9998   -9.1994 O   0  0  0  0  0  0
    4.8227    0.2607  -11.0321 O   0  0  0  0  0  0
   -0.9868    5.1669  -10.2383 O   0  0  0  0  0  0
   -1.7615    4.8723  -11.3479 C   0  0  0  0  0  0
   -1.3165    4.5873  -12.4521 O   0  0  0  0  0  0
   -3.2642    4.9402  -11.0455 C   0  0  0  0  0  0
   -3.6638    5.7574   -9.7778 C   0  0  0  0  0  0
   -3.3170    7.2570   -9.7449 C   0  0  0  0  0  0
   -2.0968    7.5590   -8.9236 C   0  0  0  0  0  0
   -1.2902    6.7352   -8.5146 O   0  0  0  0  0  0
   -1.9521    8.8710   -8.6828 O   0  0  0  0  0  0
   -5.1367    5.6241   -9.3714 C   0  0  0  0  0  0
   -5.9533    5.0189  -10.0374 O   0  0  0  0  0  0
   -5.4526    6.1346   -8.1627 O   0  0  0  0  0  0
   -5.2090   -7.3897   -6.8349 H   0  0  0  0  0  0
   -4.5064   -8.2327   -8.0251 H   0  0  0  0  0  0
   -1.3570   -5.3532   -6.1665 H   0  0  0  0  0  0
   -4.1499   -2.6459   -8.6174 H   0  0  0  0  0  0
   -0.7214    0.3047   -4.0587 H   0  0  0  0  0  0
    2.1396   -1.2222   -8.3363 H   0  0  0  0  0  0
    5.7590   -0.0588  -11.0318 H   0  0  0  0  0  0
   -1.0038    9.0170   -8.4806 H   0  0  0  0  0  0
   -4.6877    6.4134   -7.6119 H   0  0  0  0  0  0
  1  2  1  0  0  0
  2  3  1  0  0  0
  3  4  1  0  0  0
  4  5  1  0  0  0
  5  6  1  0  0  0
  5  7  1  0  0  0
  7  8  1  0  0  0
  7 39  1  0  0  0
  8  9  1  0  0  0
  8 27  1  0  0  0
  9 10  1  0  0  0
 10 11  1  0  0  0
 10 12  1  0  0  0
 12 13  1  0  0  0
 13 14  1  0  0  0
 13 26  1  0  0  0
 14 15  1  0  0  0
 15 16  1  0  0  0
 16 17  1  0  0  0
 17 18  1  0  0  0
 18 19  1  0  0  0
 18 25  1  0  0  0
 19 20  1  0  0  0
 20 21  1  0  0  0
 20 24  1  0  0  0
 21 22  1  0  0  0
 21 23  1  0  0  0
 23 51  1  0  0  0
 23 52  1  0  0  0
 24 53  1  0  0  0
 25 54  1  0  0  0
 26 55  1  0  0  0
 27 28  1  0  0  0
 28 29  2  0  0  0
 28 30  1  0  0  0
 30 31  1  0  0  0
 31 32  1  0  0  0
 31 36  1  0  0  0
 32 33  1  0  0  0
 33 34  2  0  0  0
 33 35  1  0  0  0
 35 56  1  0  0  0
 36 37  2  0  0  0
 36 38  1  0  0  0
 38 57  1  0  0  0
 39 40  1  0  0  0
 40 41  2  0  0  0
 40 42  1  0  0  0
 42 43  1  0  0  0
 43 44  1  0  0  0
 43 48  1  0  0  0
 44 45  1  0  0  0
 45 46  2  0  0  0
 45 47  1  0  0  0
 47 58  1  0  0  0
 48 49  2  0  0  0
 48 50  1  0  0  0
 50 59  1  0  0  0
M  END
>  <AUTHOR>
    GENERATED BY OPEN BABEL 2.4.1

>  <CHROM.1>
-169.48149747,62.72672067,69.46577982,-169.39086418,87.72712579,124.65116589
-169.30763434,84.43239645,62.27818802,84.26533276,38.65583518,-41.39575681
56.60224648,-157.21301507,-34.17506216,102.66854862,-173.47131862,88.05690045
135.42476911,166.47699498,-179.03962406,156.22226527,-114.72595614,-116.95895912
72.89523529,27.09063827,164.79968205,153.19843815,-137.10534216,-3.87921491
174.30850436,-10.70974027,19.70711053,61.68103090,-101.21613066,-5.54546771
13.15522038,-157.69516173,-8.95057652,-0.36221179,1.69194179,-9.20710154
-1.46570554,-0.23634024,2.97922356

>  <COMPND>
    UNNAMED

>  <MASTER>
        0    0    0    0    0    0    0    0  109    0  109    0

>  <Name>
FB1.pdb

>  <RI>
0

>  <Rbt.Current_Directory>
/cluster/tossine/FB1_39T3/p3/1_clust02

>  <Rbt.Executable>
rbdock/0.1.0

>  <Rbt.Library>
librxdock.so/0.1.0

>  <Rbt.Parameter_File>
/cluster/rxdock/data/scripts/dock.prm

>  <Rbt.Receptor>
rx_3.prm

>  <SCORE>
71.8558

>  <SCORE.INTER>
34.9794

>  <SCORE.INTER.CONST>
1

>  <SCORE.INTER.POLAR>
-1.13006

>  <SCORE.INTER.REPUL>
1.21919

>  <SCORE.INTER.ROT>
32

>  <SCORE.INTER.VDW>
-4.67432

>  <SCORE.INTER.norm>
0.699589

>  <SCORE.INTRA>
27.7229

>  <SCORE.INTRA.DIHEDRAL>
35.54

>  <SCORE.INTRA.DIHEDRAL.0>
47.3121

>  <SCORE.INTRA.POLAR>
1.47808

>  <SCORE.INTRA.POLAR.0>
-1.47808

>  <SCORE.INTRA.REPUL>
0

>  <SCORE.INTRA.REPUL.0>
0

>  <SCORE.INTRA.VDW>
4.92744

>  <SCORE.INTRA.VDW.0>
-2.78316

>  <SCORE.INTRA.norm>
0.554458

>  <SCORE.RESTR>
9.15348

>  <SCORE.RESTR.CAVITY>
9.15348

>  <SCORE.RESTR.norm>
0.18307

>  <SCORE.SYSTEM>
0

>  <SCORE.SYSTEM.CONST>
0

>  <SCORE.SYSTEM.DIHEDRAL>
0

>  <SCORE.SYSTEM.norm>
0

>  <SCORE.heavy>
50

>  <SCORE.norm>
1.43712

$$$$
