FB1.pdb
  RxDock  10072009163D
librxdock.so/0.1.0
 59 58  0  0  0  0  0  0  0  0999 V2000
    1.2915   -1.7395   -4.7572 C   0  0  0  0  0  0
    1.5885   -0.2585   -4.9805 C   0  0  0  0  0  0
    0.8465    0.2919   -6.2097 C   0  0  0  0  0  0
   -0.6438   -0.1263   -6.2698 C   0  0  0  0  0  0
   -0.9559   -1.3264   -7.2304 C   0  0  0  0  0  0
   -2.3556   -1.8800   -6.8769 C   0  0  0  0  0  0
   -0.8680   -0.9459   -8.7684 C   0  0  0  0  0  0
    0.3349   -1.5900   -9.6077 C   0  0  0  0  0  0
    1.8349   -1.7278   -9.0986 C   0  0  0  0  0  0
    2.6021   -0.3008   -8.7880 C   0  0  0  0  0  0
    4.0925   -0.4794   -9.0721 C   0  0  0  0  0  0
    2.0570    0.9761   -9.5737 C   0  0  0  0  0  0
    2.7856    1.6273  -10.8635 C   0  0  0  0  0  0
    4.3452    1.6957  -11.0020 C   0  0  0  0  0  0
    5.0655    3.1010  -10.7668 C   0  0  0  0  0  0
    4.9274    3.9608   -9.4491 C   0  0  0  0  0  0
    4.7523    5.4989   -9.5546 C   0  0  0  0  0  0
    4.5897    6.2853   -8.1966 C   0  0  0  0  0  0
    4.2683    7.7806   -8.3117 C   0  0  0  0  0  0
    3.9769    8.5748   -7.0068 C   0  0  0  0  0  0
    5.0119    8.5921   -5.8432 C   0  0  0  0  0  0
    4.5014    9.0656   -4.4895 C   0  0  0  0  0  0
    5.6906    7.2877   -5.7240 N   0  0  0  0  0  0
    3.8689    9.9567   -7.4339 O   0  0  0  0  0  0
    3.5499    5.6534   -7.4421 O   0  0  0  0  0  0
    2.3444    0.8330  -11.9775 O   0  0  0  0  0  0
   -0.0675   -2.9525   -9.9145 O   0  0  0  0  0  0
   -0.0958   -3.8347   -8.8820 C   0  0  0  0  0  0
    0.1899   -3.5962   -7.7240 O   0  0  0  0  0  0
   -0.6401   -5.1421   -9.3877 C   0  0  0  0  0  0
   -1.8022   -5.6688   -8.5308 C   0  0  0  0  0  0
   -1.5145   -5.5747   -7.0269 C   0  0  0  0  0  0
   -2.0403   -6.7872   -6.2943 C   0  0  0  0  0  0
   -1.3376   -7.7346   -5.9591 O   0  0  0  0  0  0
   -3.3562   -6.7298   -6.0416 O   0  0  0  0  0  0
   -3.0170   -4.8014   -8.8885 C   0  0  0  0  0  0
   -3.3795   -4.6029  -10.0381 O   0  0  0  0  0  0
   -3.6222   -4.2359   -7.8349 O   0  0  0  0  0  0
   -2.1762   -1.1329   -9.4419 O   0  0  0  0  0  0
   -2.3219   -0.6697  -10.7389 C   0  0  0  0  0  0
   -1.5536   -0.9205  -11.6583 O   0  0  0  0  0  0
   -3.5698    0.2067  -10.9091 C   0  0  0  0  0  0
   -3.6041    1.0946  -12.1917 C   0  0  0  0  0  0
   -4.8592    1.0321  -13.0813 C   0  0  0  0  0  0
   -6.0438    1.7268  -12.4741 C   0  0  0  0  0  0
   -6.7844    1.2595  -11.6198 O   0  0  0  0  0  0
   -6.2154    2.9663  -12.9582 O   0  0  0  0  0  0
   -3.2940    2.5770  -11.9496 C   0  0  0  0  0  0
   -4.1087    3.3565  -11.4966 O   0  0  0  0  0  0
   -2.0150    2.9452  -12.1725 O   0  0  0  0  0  0
    6.3147    7.3082   -4.9186 H   0  0  0  0  0  0
    6.3060    7.1647   -6.5312 H   0  0  0  0  0  0
    3.1302    9.9586   -8.0786 H   0  0  0  0  0  0
    3.9646    5.0450   -6.8030 H   0  0  0  0  0  0
    1.3742    0.7853  -11.9473 H   0  0  0  0  0  0
   -3.7182   -7.4876   -5.5434 H   0  0  0  0  0  0
   -4.4531   -3.7456   -8.0539 H   0  0  0  0  0  0
   -5.6991    3.0175  -13.7901 H   0  0  0  0  0  0
   -1.3867    2.2058  -12.3300 H   0  0  0  0  0  0
  1  2  1  0  0  0
  2  3  1  0  0  0
  3  4  1  0  0  0
  4  5  1  0  0  0
  5  6  1  0  0  0
  5  7  1  0  0  0
  7  8  1  0  0  0
  7 39  1  0  0  0
  8  9  1  0  0  0
  8 27  1  0  0  0
  9 10  1  0  0  0
 10 11  1  0  0  0
 10 12  1  0  0  0
 12 13  1  0  0  0
 13 14  1  0  0  0
 13 26  1  0  0  0
 14 15  1  0  0  0
 15 16  1  0  0  0
 16 17  1  0  0  0
 17 18  1  0  0  0
 18 19  1  0  0  0
 18 25  1  0  0  0
 19 20  1  0  0  0
 20 21  1  0  0  0
 20 24  1  0  0  0
 21 22  1  0  0  0
 21 23  1  0  0  0
 23 51  1  0  0  0
 23 52  1  0  0  0
 24 53  1  0  0  0
 25 54  1  0  0  0
 26 55  1  0  0  0
 27 28  1  0  0  0
 28 29  2  0  0  0
 28 30  1  0  0  0
 30 31  1  0  0  0
 31 32  1  0  0  0
 31 36  1  0  0  0
 32 33  1  0  0  0
 33 34  2  0  0  0
 33 35  1  0  0  0
 35 56  1  0  0  0
 36 37  2  0  0  0
 36 38  1  0  0  0
 38 57  1  0  0  0
 39 40  1  0  0  0
 40 41  2  0  0  0
 40 42  1  0  0  0
 42 43  1  0  0  0
 43 44  1  0  0  0
 43 48  1  0  0  0
 44 45  1  0  0  0
 45 46  2  0  0  0
 45 47  1  0  0  0
 47 58  1  0  0  0
 48 49  2  0  0  0
 48 50  1  0  0  0
 50 59  1  0  0  0
M  END
>  <AUTHOR>
    GENERATED BY OPEN BABEL 2.4.1

>  <CHROM.1>
46.07804060,-99.93849289,163.71374059,111.40195569,-42.26629470,171.08551247
-62.56436488,-70.91194652,-149.01950262,-102.45246421,-36.44013739,-104.46718884
51.38090068,56.28876900,-137.96865305,178.71697671,-173.71169704,174.80275877
97.18296724,55.87802597,-164.08680756,59.63186934,-176.26931929,-0.38628380
-128.10871657,-45.43295610,-141.06291951,51.08405627,99.52535942,-178.11767529
-174.61621729,50.77770249,163.14101080,128.95101372,73.16739202,-78.48023954
-80.58579302,17.48492897,-9.11237054,0.02537423,0.49556249,-8.92633461,-2.27522141
-0.58539383,-0.34966917

>  <COMPND>
    UNNAMED

>  <MASTER>
        0    0    0    0    0    0    0    0  109    0  109    0

>  <Name>
FB1.pdb

>  <RI>
0

>  <Rbt.Current_Directory>
/cluster/tossine/FB1_39T3/p3/1_clust02

>  <Rbt.Executable>
rbdock/0.1.0

>  <Rbt.Library>
librxdock.so/0.1.0

>  <Rbt.Parameter_File>
/cluster/rxdock/data/scripts/dock.prm

>  <Rbt.Receptor>
rx_3.prm

>  <SCORE>
48.3925

>  <SCORE.INTER>
9.81165

>  <SCORE.INTER.CONST>
1

>  <SCORE.INTER.POLAR>
-2.46794

>  <SCORE.INTER.REPUL>
1.55685

>  <SCORE.INTER.ROT>
32

>  <SCORE.INTER.VDW>
-26.9816

>  <SCORE.INTER.norm>
0.196233

>  <SCORE.INTRA>
30.7803

>  <SCORE.INTRA.DIHEDRAL>
37.2357

>  <SCORE.INTRA.DIHEDRAL.0>
47.3121

>  <SCORE.INTRA.POLAR>
1.47808

>  <SCORE.INTRA.POLAR.0>
-1.47808

>  <SCORE.INTRA.REPUL>
0.0408761

>  <SCORE.INTRA.REPUL.0>
0

>  <SCORE.INTRA.VDW>
6.93258

>  <SCORE.INTRA.VDW.0>
-2.78316

>  <SCORE.INTRA.norm>
0.615606

>  <SCORE.RESTR>
7.80054

>  <SCORE.RESTR.CAVITY>
7.80054

>  <SCORE.RESTR.norm>
0.156011

>  <SCORE.SYSTEM>
0

>  <SCORE.SYSTEM.CONST>
0

>  <SCORE.SYSTEM.DIHEDRAL>
0

>  <SCORE.SYSTEM.norm>
0

>  <SCORE.heavy>
50

>  <SCORE.norm>
0.96785

$$$$
