FB1.pdb
  RxDock  10072007223D
librxdock.so/0.1.0
 59 58  0  0  0  0  0  0  0  0999 V2000
    0.8643    2.4691   -7.0078 C   0  0  0  0  0  0
   -0.0930    1.7462   -6.0632 C   0  0  0  0  0  0
    0.6602    1.0103   -4.9427 C   0  0  0  0  0  0
    1.7360    0.0257   -5.4650 C   0  0  0  0  0  0
    1.2762   -0.8857   -6.6559 C   0  0  0  0  0  0
    2.4293   -1.8578   -6.9967 C   0  0  0  0  0  0
   -0.0670   -1.6787   -6.3645 C   0  0  0  0  0  0
   -0.8642   -2.2465   -7.6327 C   0  0  0  0  0  0
   -1.9795   -3.3786   -7.5805 C   0  0  0  0  0  0
   -2.1760   -4.2318   -8.9787 C   0  0  0  0  0  0
   -1.2337   -5.4340   -8.9498 C   0  0  0  0  0  0
   -3.6594   -4.7225   -9.3003 C   0  0  0  0  0  0
   -4.1065   -6.2762   -9.3693 C   0  0  0  0  0  0
   -5.6095   -6.7160   -9.4308 C   0  0  0  0  0  0
   -5.9389   -8.2749   -9.5324 C   0  0  0  0  0  0
   -6.3532   -9.1776   -8.3043 C   0  0  0  0  0  0
   -5.9538   -8.7454   -6.8686 C   0  0  0  0  0  0
   -4.4385   -8.9331   -6.4712 C   0  0  0  0  0  0
   -4.0446   -8.4772   -5.0607 C   0  0  0  0  0  0
   -4.7239   -9.1699   -3.8453 C   0  0  0  0  0  0
   -4.0862   -9.0837   -2.4272 C   0  0  0  0  0  0
   -3.8748   -7.6856   -1.8633 C   0  0  0  0  0  0
   -4.8185   -9.9335   -1.4691 N   0  0  0  0  0  0
   -6.0104   -8.5121   -3.7191 O   0  0  0  0  0  0
   -4.1147  -10.3210   -6.6076 O   0  0  0  0  0  0
   -3.5194   -6.7762  -10.5825 O   0  0  0  0  0  0
   -1.5364   -1.1066   -8.2337 O   0  0  0  0  0  0
   -0.9034   -0.4911   -9.2661 C   0  0  0  0  0  0
    0.2278   -0.0446   -9.2529 O   0  0  0  0  0  0
   -1.8002   -0.5415  -10.4723 C   0  0  0  0  0  0
   -1.6798   -1.8662  -11.2424 C   0  0  0  0  0  0
   -2.5193   -1.8791  -12.5263 C   0  0  0  0  0  0
   -3.9971   -1.8905  -12.2111 C   0  0  0  0  0  0
   -4.6945   -0.8820  -12.1929 O   0  0  0  0  0  0
   -4.4790   -3.1152  -11.9530 O   0  0  0  0  0  0
   -0.1918   -2.0206  -11.5863 C   0  0  0  0  0  0
    0.4854   -1.1112  -12.0410 O   0  0  0  0  0  0
    0.2955   -3.2539  -11.3928 O   0  0  0  0  0  0
    0.1397   -2.7195   -5.3283 O   0  0  0  0  0  0
   -0.9081   -3.0143   -4.4720 C   0  0  0  0  0  0
   -1.5099   -4.0800   -4.4491 O   0  0  0  0  0  0
   -1.2437   -1.8457   -3.5361 C   0  0  0  0  0  0
   -2.6623   -1.8832   -2.8875 C   0  0  0  0  0  0
   -3.8782   -2.0530   -3.8167 C   0  0  0  0  0  0
   -5.1868   -1.8175   -3.1193 C   0  0  0  0  0  0
   -6.2491   -2.3587   -3.3936 O   0  0  0  0  0  0
   -5.0807   -0.9367   -2.1127 O   0  0  0  0  0  0
   -2.8165   -2.8997   -1.7495 C   0  0  0  0  0  0
   -2.9851   -2.5734   -0.5911 O   0  0  0  0  0  0
   -2.8607   -4.1936   -2.1304 O   0  0  0  0  0  0
   -4.3535  -10.8378   -1.4014 H   0  0  0  0  0  0
   -5.7421  -10.1405   -1.8557 H   0  0  0  0  0  0
   -6.6328   -9.2312   -3.4804 H   0  0  0  0  0  0
   -3.8054  -10.6476   -5.7426 H   0  0  0  0  0  0
   -2.5552   -6.6746  -10.5140 H   0  0  0  0  0  0
   -3.8212   -3.8363  -11.9813 H   0  0  0  0  0  0
   -0.3928   -3.9463  -11.2330 H   0  0  0  0  0  0
   -5.1128   -0.0435   -2.5159 H   0  0  0  0  0  0
   -2.7974   -4.3484   -3.0990 H   0  0  0  0  0  0
  1  2  1  0  0  0
  2  3  1  0  0  0
  3  4  1  0  0  0
  4  5  1  0  0  0
  5  6  1  0  0  0
  5  7  1  0  0  0
  7  8  1  0  0  0
  7 39  1  0  0  0
  8  9  1  0  0  0
  8 27  1  0  0  0
  9 10  1  0  0  0
 10 11  1  0  0  0
 10 12  1  0  0  0
 12 13  1  0  0  0
 13 14  1  0  0  0
 13 26  1  0  0  0
 14 15  1  0  0  0
 15 16  1  0  0  0
 16 17  1  0  0  0
 17 18  1  0  0  0
 18 19  1  0  0  0
 18 25  1  0  0  0
 19 20  1  0  0  0
 20 21  1  0  0  0
 20 24  1  0  0  0
 21 22  1  0  0  0
 21 23  1  0  0  0
 23 51  1  0  0  0
 23 52  1  0  0  0
 24 53  1  0  0  0
 25 54  1  0  0  0
 26 55  1  0  0  0
 27 28  1  0  0  0
 28 29  2  0  0  0
 28 30  1  0  0  0
 30 31  1  0  0  0
 31 32  1  0  0  0
 31 36  1  0  0  0
 32 33  1  0  0  0
 33 34  2  0  0  0
 33 35  1  0  0  0
 35 56  1  0  0  0
 36 37  2  0  0  0
 36 38  1  0  0  0
 38 57  1  0  0  0
 39 40  1  0  0  0
 40 41  2  0  0  0
 40 42  1  0  0  0
 42 43  1  0  0  0
 43 44  1  0  0  0
 43 48  1  0  0  0
 44 45  1  0  0  0
 45 46  2  0  0  0
 45 47  1  0  0  0
 47 58  1  0  0  0
 48 49  2  0  0  0
 48 50  1  0  0  0
 50 59  1  0  0  0
M  END
>  <AUTHOR>
    GENERATED BY OPEN BABEL 2.4.1

>  <CHROM.1>
-54.83108210,-45.10327839,-176.68158633,160.82750569,162.37500460,147.09083478
-154.68513223,95.51357573,89.57588564,-115.37218614,168.70841104,178.53466119
60.18365223,99.05385223,-23.19976007,-74.46443263,178.78684370,61.24832028
-121.46785066,161.26574098,58.20068920,141.27885853,95.29096920,-54.68160722
-83.79041221,-175.95524835,-68.68479063,-45.79494448,96.82741468,1.23359730
11.85775762,113.18649633,160.39770990,-52.56730859,-169.19356291,112.32324439
-149.15720674,81.59987903,-0.52576231,-2.55678952,-3.75549215,-6.81573013
-0.50276118,1.04462170,1.52644767

>  <COMPND>
    UNNAMED

>  <MASTER>
        0    0    0    0    0    0    0    0  109    0  109    0

>  <Name>
FB1.pdb

>  <RI>
0

>  <Rbt.Current_Directory>
/cluster/tossine/FB1_39T3/p3/1_clust02

>  <Rbt.Executable>
rbdock/0.1.0

>  <Rbt.Library>
librxdock.so/0.1.0

>  <Rbt.Parameter_File>
/cluster/rxdock/data/scripts/dock.prm

>  <Rbt.Receptor>
rx_0.prm

>  <SCORE>
53.6216

>  <SCORE.INTER>
14.7824

>  <SCORE.INTER.CONST>
1

>  <SCORE.INTER.POLAR>
-2.41315

>  <SCORE.INTER.REPUL>
2.44982

>  <SCORE.INTER.ROT>
32

>  <SCORE.INTER.VDW>
-26.662

>  <SCORE.INTER.norm>
0.295648

>  <SCORE.INTRA>
38.1682

>  <SCORE.INTRA.DIHEDRAL>
74.2152

>  <SCORE.INTRA.DIHEDRAL.0>
47.3121

>  <SCORE.INTRA.POLAR>
0.824598

>  <SCORE.INTRA.POLAR.0>
-1.47808

>  <SCORE.INTRA.REPUL>
0

>  <SCORE.INTRA.REPUL.0>
0

>  <SCORE.INTRA.VDW>
-1.74301

>  <SCORE.INTRA.VDW.0>
-2.78316

>  <SCORE.INTRA.norm>
0.763364

>  <SCORE.RESTR>
0.670972

>  <SCORE.RESTR.CAVITY>
0.670972

>  <SCORE.RESTR.norm>
0.0134194

>  <SCORE.SYSTEM>
0

>  <SCORE.SYSTEM.CONST>
0

>  <SCORE.SYSTEM.DIHEDRAL>
0

>  <SCORE.SYSTEM.norm>
0

>  <SCORE.heavy>
50

>  <SCORE.norm>
1.07243

$$$$
