FB1.pdb
  RxDock  10072008063D
librxdock.so/0.1.0
 59 58  0  0  0  0  0  0  0  0999 V2000
   -3.3610    2.5753  -12.5502 C   0  0  0  0  0  0
   -4.5337    1.7420  -12.0385 C   0  0  0  0  0  0
   -4.6786    0.4242  -12.8174 C   0  0  0  0  0  0
   -3.8910   -0.7533  -12.1907 C   0  0  0  0  0  0
   -4.5336   -1.3650  -10.8972 C   0  0  0  0  0  0
   -5.9813   -1.7938  -11.2304 C   0  0  0  0  0  0
   -3.7077   -2.5774  -10.2923 C   0  0  0  0  0  0
   -2.9032   -2.3019   -8.9347 C   0  0  0  0  0  0
   -1.9646   -3.3528   -8.1980 C   0  0  0  0  0  0
   -2.7449   -4.4052   -7.1955 C   0  0  0  0  0  0
   -1.7229   -5.3979   -6.6439 C   0  0  0  0  0  0
   -3.5619   -3.7536   -5.9903 C   0  0  0  0  0  0
   -2.9015   -2.8176   -4.8473 C   0  0  0  0  0  0
   -1.8958   -3.3750   -3.7825 C   0  0  0  0  0  0
   -2.3123   -4.6755   -2.9552 C   0  0  0  0  0  0
   -3.6966   -4.8528   -2.2159 C   0  0  0  0  0  0
   -3.9164   -6.0764   -1.2875 C   0  0  0  0  0  0
   -3.6597   -7.4982   -1.9213 C   0  0  0  0  0  0
   -3.7473   -7.5863   -3.4501 C   0  0  0  0  0  0
   -4.1093   -8.9566   -4.0901 C   0  0  0  0  0  0
   -5.5421   -9.5476   -3.9372 C   0  0  0  0  0  0
   -5.8440  -10.2623   -2.6275 C   0  0  0  0  0  0
   -6.5658   -8.5260   -4.2286 N   0  0  0  0  0  0
   -3.9372   -8.7534   -5.5159 O   0  0  0  0  0  0
   -2.3582   -7.9347   -1.5145 O   0  0  0  0  0  0
   -2.1662   -1.8155   -5.5696 O   0  0  0  0  0  0
   -2.0342   -1.1676   -9.2004 O   0  0  0  0  0  0
   -0.7151   -1.4320   -9.3890 C   0  0  0  0  0  0
   -0.2297   -2.0397  -10.3241 O   0  0  0  0  0  0
    0.0665   -0.7577   -8.2954 C   0  0  0  0  0  0
    1.2590    0.0492   -8.8335 C   0  0  0  0  0  0
    0.9693    0.6893  -10.1972 C   0  0  0  0  0  0
    2.1485    0.5413  -11.1303 C   0  0  0  0  0  0
    3.2792    0.2524  -10.7540 O   0  0  0  0  0  0
    1.8409    0.7552  -12.4182 O   0  0  0  0  0  0
    1.5359    1.1397   -7.7894 C   0  0  0  0  0  0
    1.3770    2.3306   -8.0107 O   0  0  0  0  0  0
    2.0156    0.6815   -6.6250 O   0  0  0  0  0  0
   -4.5405   -3.8016  -10.2044 O   0  0  0  0  0  0
   -4.9353   -4.4161  -11.3812 C   0  0  0  0  0  0
   -4.5763   -4.0733  -12.5001 O   0  0  0  0  0  0
   -5.8869   -5.5940  -11.1340 C   0  0  0  0  0  0
   -5.8367   -6.2169   -9.7043 C   0  0  0  0  0  0
   -6.6756   -7.4796   -9.4355 C   0  0  0  0  0  0
   -6.9798   -7.6827   -7.9792 C   0  0  0  0  0  0
   -6.6389   -8.6461   -7.3067 O   0  0  0  0  0  0
   -7.6727   -6.6616   -7.4525 O   0  0  0  0  0  0
   -4.4226   -6.4920   -9.1779 C   0  0  0  0  0  0
   -4.1582   -6.5469   -7.9931 O   0  0  0  0  0  0
   -3.4994   -6.7782  -10.1197 O   0  0  0  0  0  0
   -7.3922   -8.7099   -3.6614 H   0  0  0  0  0  0
   -6.8783   -8.6430   -5.1951 H   0  0  0  0  0  0
   -4.5173   -7.9920   -5.7283 H   0  0  0  0  0  0
   -2.4312   -8.3169   -0.6206 H   0  0  0  0  0  0
   -2.8062   -1.2350   -6.0144 H   0  0  0  0  0  0
    2.5665    0.5957  -13.0518 H   0  0  0  0  0  0
    2.1445   -0.2988   -6.5919 H   0  0  0  0  0  0
   -7.8629   -6.9015   -6.5210 H   0  0  0  0  0  0
   -3.8418   -6.8357  -11.0393 H   0  0  0  0  0  0
  1  2  1  0  0  0
  2  3  1  0  0  0
  3  4  1  0  0  0
  4  5  1  0  0  0
  5  6  1  0  0  0
  5  7  1  0  0  0
  7  8  1  0  0  0
  7 39  1  0  0  0
  8  9  1  0  0  0
  8 27  1  0  0  0
  9 10  1  0  0  0
 10 11  1  0  0  0
 10 12  1  0  0  0
 12 13  1  0  0  0
 13 14  1  0  0  0
 13 26  1  0  0  0
 14 15  1  0  0  0
 15 16  1  0  0  0
 16 17  1  0  0  0
 17 18  1  0  0  0
 18 19  1  0  0  0
 18 25  1  0  0  0
 19 20  1  0  0  0
 20 21  1  0  0  0
 20 24  1  0  0  0
 21 22  1  0  0  0
 21 23  1  0  0  0
 23 51  1  0  0  0
 23 52  1  0  0  0
 24 53  1  0  0  0
 25 54  1  0  0  0
 26 55  1  0  0  0
 27 28  1  0  0  0
 28 29  2  0  0  0
 28 30  1  0  0  0
 30 31  1  0  0  0
 31 32  1  0  0  0
 31 36  1  0  0  0
 32 33  1  0  0  0
 33 34  2  0  0  0
 33 35  1  0  0  0
 35 56  1  0  0  0
 36 37  2  0  0  0
 36 38  1  0  0  0
 38 57  1  0  0  0
 39 40  1  0  0  0
 40 41  2  0  0  0
 40 42  1  0  0  0
 42 43  1  0  0  0
 43 44  1  0  0  0
 43 48  1  0  0  0
 44 45  1  0  0  0
 45 46  2  0  0  0
 45 47  1  0  0  0
 47 58  1  0  0  0
 48 49  2  0  0  0
 48 50  1  0  0  0
 50 59  1  0  0  0
M  END
>  <AUTHOR>
    GENERATED BY OPEN BABEL 2.4.1

>  <CHROM.1>
90.82629064,75.15653832,55.71816820,107.46013399,-177.11907765,68.16420919
-84.08793880,-104.18352603,176.27850501,-59.24525150,-68.03706681,-51.17727272
69.21381916,-49.62722239,-171.84323293,-54.68330923,-22.46191169,-154.33962243
82.14010418,69.59701432,-81.02343964,-56.18209637,-148.46329590,67.11837927
-131.31479419,34.24472286,-137.18640197,-113.73057125,-16.54460463,-175.25329731
0.98069388,4.95419850,-21.36955242,-174.61965362,-157.84839298,155.09716030
-118.96822968,177.17187459,-3.66635948,-2.99740392,-3.75468427,-7.87482822
1.02196078,-0.71062119,-1.01465566

>  <COMPND>
    UNNAMED

>  <MASTER>
        0    0    0    0    0    0    0    0  109    0  109    0

>  <Name>
FB1.pdb

>  <RI>
0

>  <Rbt.Current_Directory>
/cluster/tossine/FB1_39T3/p3/1_clust02

>  <Rbt.Executable>
rbdock/0.1.0

>  <Rbt.Library>
librxdock.so/0.1.0

>  <Rbt.Parameter_File>
/cluster/rxdock/data/scripts/dock.prm

>  <Rbt.Receptor>
rx_1.prm

>  <SCORE>
73.6042

>  <SCORE.INTER>
53.9487

>  <SCORE.INTER.CONST>
1

>  <SCORE.INTER.POLAR>
-0.455482

>  <SCORE.INTER.REPUL>
0.882607

>  <SCORE.INTER.ROT>
32

>  <SCORE.INTER.VDW>
13.6843

>  <SCORE.INTER.norm>
1.07897

>  <SCORE.INTRA>
19.3966

>  <SCORE.INTRA.DIHEDRAL>
23.7806

>  <SCORE.INTRA.DIHEDRAL.0>
47.3121

>  <SCORE.INTRA.POLAR>
0.478077

>  <SCORE.INTRA.POLAR.0>
-1.47808

>  <SCORE.INTRA.REPUL>
0.0145906

>  <SCORE.INTRA.REPUL.0>
0

>  <SCORE.INTRA.VDW>
5.80792

>  <SCORE.INTRA.VDW.0>
-2.78316

>  <SCORE.INTRA.norm>
0.387932

>  <SCORE.RESTR>
0.258886

>  <SCORE.RESTR.CAVITY>
0.258886

>  <SCORE.RESTR.norm>
0.00517772

>  <SCORE.SYSTEM>
0

>  <SCORE.SYSTEM.CONST>
0

>  <SCORE.SYSTEM.DIHEDRAL>
0

>  <SCORE.SYSTEM.norm>
0

>  <SCORE.heavy>
50

>  <SCORE.norm>
1.47208

$$$$
