FB1.pdb
  RxDock  10072008433D
librxdock.so/0.1.0
 59 58  0  0  0  0  0  0  0  0999 V2000
    0.6829   -3.2987  -11.2608 C   0  0  0  0  0  0
    1.4656   -2.1480  -10.6328 C   0  0  0  0  0  0
    0.7276   -1.5503   -9.4235 C   0  0  0  0  0  0
   -0.7501   -1.1906   -9.7179 C   0  0  0  0  0  0
   -1.5672   -0.6837   -8.4786 C   0  0  0  0  0  0
   -3.0409   -1.1149   -8.6593 C   0  0  0  0  0  0
   -0.9929   -1.1936   -7.0900 C   0  0  0  0  0  0
   -1.1175   -2.7613   -6.7849 C   0  0  0  0  0  0
   -0.3799   -3.9128   -7.5961 C   0  0  0  0  0  0
   -1.1206   -4.3646   -8.9992 C   0  0  0  0  0  0
   -0.7713   -5.8244   -9.2839 C   0  0  0  0  0  0
   -2.7035   -4.1732   -9.0519 C   0  0  0  0  0  0
   -3.6853   -4.9996  -10.0377 C   0  0  0  0  0  0
   -4.1377   -6.4691   -9.7343 C   0  0  0  0  0  0
   -5.6942   -6.8148   -9.8181 C   0  0  0  0  0  0
   -6.5437   -7.3858   -8.6152 C   0  0  0  0  0  0
   -6.2824   -8.8302   -8.1124 C   0  0  0  0  0  0
   -5.7274   -8.9760   -6.6427 C   0  0  0  0  0  0
   -5.8717  -10.3593   -5.9961 C   0  0  0  0  0  0
   -6.5142  -10.4492   -4.5828 C   0  0  0  0  0  0
   -5.8253   -9.7808   -3.3564 C   0  0  0  0  0  0
   -5.5165  -10.6890   -2.1745 C   0  0  0  0  0  0
   -4.6253   -9.0302   -3.7723 N   0  0  0  0  0  0
   -7.7886   -9.7692   -4.7144 O   0  0  0  0  0  0
   -4.3398   -8.6235   -6.6576 O   0  0  0  0  0  0
   -4.9008   -4.2331  -10.0762 O   0  0  0  0  0  0
   -0.6719   -2.9450   -5.4137 O   0  0  0  0  0  0
   -1.3717   -2.2982   -4.4457 C   0  0  0  0  0  0
   -1.3201   -1.1095   -4.1931 O   0  0  0  0  0  0
   -2.3060   -3.2814   -3.7962 C   0  0  0  0  0  0
   -2.6467   -2.9027   -2.3461 C   0  0  0  0  0  0
   -3.8155   -1.9132   -2.2552 C   0  0  0  0  0  0
   -4.5095   -1.7653   -3.5893 C   0  0  0  0  0  0
   -4.3907   -0.7805   -4.3102 O   0  0  0  0  0  0
   -5.2719   -2.8197   -3.9148 O   0  0  0  0  0  0
   -3.0146   -4.2162   -1.6423 C   0  0  0  0  0  0
   -2.1928   -5.0758   -1.3625 O   0  0  0  0  0  0
   -4.3244   -4.3671   -1.4023 O   0  0  0  0  0  0
    0.3847   -0.6926   -6.8639 O   0  0  0  0  0  0
    0.5454    0.5623   -6.3005 C   0  0  0  0  0  0
    1.0519    0.7748   -5.2066 O   0  0  0  0  0  0
    0.0138    1.6812   -7.2060 C   0  0  0  0  0  0
    0.9987    2.1891   -8.3044 C   0  0  0  0  0  0
    0.9835    1.4826   -9.6722 C   0  0  0  0  0  0
    1.5303    2.3365  -10.7796 C   0  0  0  0  0  0
    0.8652    2.9369  -11.6125 O   0  0  0  0  0  0
    2.8704    2.4012  -10.7638 O   0  0  0  0  0  0
    0.9313    3.6976   -8.5730 C   0  0  0  0  0  0
    1.8199    4.4646   -8.2586 O   0  0  0  0  0  0
   -0.1388    4.1124   -9.2830 O   0  0  0  0  0  0
   -4.1565   -8.6645   -2.9446 H   0  0  0  0  0  0
   -4.9222   -8.2025   -4.2941 H   0  0  0  0  0  0
   -8.2982  -10.3202   -5.3453 H   0  0  0  0  0  0
   -3.9725   -8.7966   -5.7712 H   0  0  0  0  0  0
   -4.6661   -3.3053  -10.2454 H   0  0  0  0  0  0
   -5.2830   -3.5438   -3.2598 H   0  0  0  0  0  0
   -4.5676   -5.2287   -0.9814 H   0  0  0  0  0  0
    3.1538    2.1446   -9.8610 H   0  0  0  0  0  0
   -0.7137    3.3959   -9.6328 H   0  0  0  0  0  0
  1  2  1  0  0  0
  2  3  1  0  0  0
  3  4  1  0  0  0
  4  5  1  0  0  0
  5  6  1  0  0  0
  5  7  1  0  0  0
  7  8  1  0  0  0
  7 39  1  0  0  0
  8  9  1  0  0  0
  8 27  1  0  0  0
  9 10  1  0  0  0
 10 11  1  0  0  0
 10 12  1  0  0  0
 12 13  1  0  0  0
 13 14  1  0  0  0
 13 26  1  0  0  0
 14 15  1  0  0  0
 15 16  1  0  0  0
 16 17  1  0  0  0
 17 18  1  0  0  0
 18 19  1  0  0  0
 18 25  1  0  0  0
 19 20  1  0  0  0
 20 21  1  0  0  0
 20 24  1  0  0  0
 21 22  1  0  0  0
 21 23  1  0  0  0
 23 51  1  0  0  0
 23 52  1  0  0  0
 24 53  1  0  0  0
 25 54  1  0  0  0
 26 55  1  0  0  0
 27 28  1  0  0  0
 28 29  2  0  0  0
 28 30  1  0  0  0
 30 31  1  0  0  0
 31 32  1  0  0  0
 31 36  1  0  0  0
 32 33  1  0  0  0
 33 34  2  0  0  0
 33 35  1  0  0  0
 35 56  1  0  0  0
 36 37  2  0  0  0
 36 38  1  0  0  0
 38 57  1  0  0  0
 39 40  1  0  0  0
 40 41  2  0  0  0
 40 42  1  0  0  0
 42 43  1  0  0  0
 43 44  1  0  0  0
 43 48  1  0  0  0
 44 45  1  0  0  0
 45 46  2  0  0  0
 45 47  1  0  0  0
 47 58  1  0  0  0
 48 49  2  0  0  0
 48 50  1  0  0  0
 50 59  1  0  0  0
M  END
>  <AUTHOR>
    GENERATED BY OPEN BABEL 2.4.1

>  <CHROM.1>
-50.67815105,175.41050455,-148.53860623,-68.01379977,65.13198802,85.45655885
-81.99764664,60.81392241,-152.03320782,-156.82742685,79.02451053,130.20652753
48.61675388,-120.99422130,-69.08075003,115.35425273,161.91404217,-128.98333581
-174.49341906,-63.55376138,-123.90234359,64.61385160,-175.70357832,-75.22666417
153.27887541,85.28080980,10.99139159,71.44004829,-105.66189148,-0.12035368
177.67872654,115.24479748,-84.26005916,89.21414313,157.48243499,109.82605515
-102.13378978,-19.85875780,-6.04887963,-2.23723160,-3.12700484,-6.84269678
0.06019050,-1.03766008,-1.88525400

>  <COMPND>
    UNNAMED

>  <MASTER>
        0    0    0    0    0    0    0    0  109    0  109    0

>  <Name>
FB1.pdb

>  <RI>
0

>  <Rbt.Current_Directory>
/cluster/tossine/FB1_39T3/p3/1_clust02

>  <Rbt.Executable>
rbdock/0.1.0

>  <Rbt.Library>
librxdock.so/0.1.0

>  <Rbt.Parameter_File>
/cluster/rxdock/data/scripts/dock.prm

>  <Rbt.Receptor>
rx_2.prm

>  <SCORE>
101.085

>  <SCORE.INTER>
60.2231

>  <SCORE.INTER.CONST>
1

>  <SCORE.INTER.POLAR>
-0.759883

>  <SCORE.INTER.REPUL>
1.43642

>  <SCORE.INTER.ROT>
32

>  <SCORE.INTER.VDW>
18.2246

>  <SCORE.INTER.norm>
1.20446

>  <SCORE.INTRA>
40.4014

>  <SCORE.INTRA.DIHEDRAL>
65.6272

>  <SCORE.INTRA.DIHEDRAL.0>
47.3121

>  <SCORE.INTRA.POLAR>
0.0294718

>  <SCORE.INTRA.POLAR.0>
-1.47808

>  <SCORE.INTRA.REPUL>
0

>  <SCORE.INTRA.REPUL.0>
0

>  <SCORE.INTRA.VDW>
7.48759

>  <SCORE.INTRA.VDW.0>
-2.78316

>  <SCORE.INTRA.norm>
0.808028

>  <SCORE.RESTR>
0.460332

>  <SCORE.RESTR.CAVITY>
0.460332

>  <SCORE.RESTR.norm>
0.00920665

>  <SCORE.SYSTEM>
0

>  <SCORE.SYSTEM.CONST>
0

>  <SCORE.SYSTEM.DIHEDRAL>
0

>  <SCORE.SYSTEM.norm>
0

>  <SCORE.heavy>
50

>  <SCORE.norm>
2.0217

$$$$
