FB1.pdb
  RxDock  09132012433D
librxdock.so/0.1.0
 59 58  0  0  0  0  0  0  0  0999 V2000
   -0.1148   -2.0413  -11.4125 C   0  0  0  0  0  0
    0.5717   -1.4521  -10.1825 C   0  0  0  0  0  0
    1.9572   -2.0770   -9.9498 C   0  0  0  0  0  0
    2.8108   -1.3150   -8.9056 C   0  0  0  0  0  0
    2.3359   -1.4749   -7.4192 C   0  0  0  0  0  0
    3.1817   -0.5298   -6.5349 C   0  0  0  0  0  0
    0.7854   -1.2047   -7.2172 C   0  0  0  0  0  0
   -0.1284   -2.4663   -6.8436 C   0  0  0  0  0  0
   -1.6439   -2.3897   -6.3685 C   0  0  0  0  0  0
   -1.9112   -1.4637   -5.0297 C   0  0  0  0  0  0
   -3.2506   -0.7475   -5.1947 C   0  0  0  0  0  0
   -1.8820   -2.2273   -3.6294 C   0  0  0  0  0  0
   -2.5333   -3.6872   -3.3779 C   0  0  0  0  0  0
   -3.9095   -3.8797   -2.6532 C   0  0  0  0  0  0
   -3.9022   -4.3127   -1.1165 C   0  0  0  0  0  0
   -4.1775   -5.7817   -0.6058 C   0  0  0  0  0  0
   -3.3502   -6.3469    0.5789 C   0  0  0  0  0  0
   -4.0763   -7.3924    1.5111 C   0  0  0  0  0  0
   -3.3622   -7.7447    2.8220 C   0  0  0  0  0  0
   -4.2285   -8.0007    4.0878 C   0  0  0  0  0  0
   -4.4899   -9.4524    4.5875 C   0  0  0  0  0  0
   -5.7828  -10.1069    4.1212 C   0  0  0  0  0  0
   -3.3297  -10.3205    4.3104 N   0  0  0  0  0  0
   -3.5026   -7.3574    5.1663 O   0  0  0  0  0  0
   -5.3748   -6.8774    1.8248 O   0  0  0  0  0  0
   -2.7207   -4.2395   -4.6918 O   0  0  0  0  0  0
   -0.1650   -3.3067   -8.0289 O   0  0  0  0  0  0
   -0.7250   -4.5371   -7.8955 C   0  0  0  0  0  0
   -0.9256   -5.1269   -6.8508 O   0  0  0  0  0  0
   -1.1538   -5.0148   -9.2554 C   0  0  0  0  0  0
   -2.6818   -5.1088   -9.3934 C   0  0  0  0  0  0
   -3.3688   -5.4971   -8.0779 C   0  0  0  0  0  0
   -4.7344   -6.0924   -8.3312 C   0  0  0  0  0  0
   -4.9183   -7.2704   -8.6178 O   0  0  0  0  0  0
   -5.7342   -5.2065   -8.2108 O   0  0  0  0  0  0
   -3.1513   -3.7175   -9.8404 C   0  0  0  0  0  0
   -2.5289   -2.6942   -9.5995 O   0  0  0  0  0  0
   -4.3304   -3.7098  -10.4771 O   0  0  0  0  0  0
    0.5561   -0.0628   -6.2989 O   0  0  0  0  0  0
    0.2025    1.1604   -6.8438 C   0  0  0  0  0  0
   -0.2575    2.0994   -6.2073 O   0  0  0  0  0  0
    0.4520    1.2197   -8.3566 C   0  0  0  0  0  0
    0.4837    2.6486   -8.9824 C   0  0  0  0  0  0
    1.4789    3.6703   -8.4025 C   0  0  0  0  0  0
    1.1949    5.0786   -8.8391 C   0  0  0  0  0  0
    0.4268    5.8553   -8.2884 O   0  0  0  0  0  0
    1.9024    5.4323   -9.9230 O   0  0  0  0  0  0
    0.6462    2.6734  -10.5073 C   0  0  0  0  0  0
   -0.1558    3.2071  -11.2481 O   0  0  0  0  0  0
    1.8002    2.1537  -10.9756 O   0  0  0  0  0  0
   -2.5467  -10.0278    4.8934 H   0  0  0  0  0  0
   -3.0196  -10.1548    3.3503 H   0  0  0  0  0  0
   -2.6373   -7.8179    5.1904 H   0  0  0  0  0  0
   -5.8760   -6.7891    0.9932 H   0  0  0  0  0  0
   -3.0498   -5.1485   -4.5918 H   0  0  0  0  0  0
   -6.6328   -5.5772   -8.3037 H   0  0  0  0  0  0
   -4.4225   -3.0010  -11.1611 H   0  0  0  0  0  0
    2.5534    4.7161  -10.0801 H   0  0  0  0  0  0
    1.9408    2.2484  -11.9438 H   0  0  0  0  0  0
  1  2  1  0  0  0
  2  3  1  0  0  0
  3  4  1  0  0  0
  4  5  1  0  0  0
  5  6  1  0  0  0
  5  7  1  0  0  0
  7  8  1  0  0  0
  7 39  1  0  0  0
  8  9  1  0  0  0
  8 27  1  0  0  0
  9 10  1  0  0  0
 10 11  1  0  0  0
 10 12  1  0  0  0
 12 13  1  0  0  0
 13 14  1  0  0  0
 13 26  1  0  0  0
 14 15  1  0  0  0
 15 16  1  0  0  0
 16 17  1  0  0  0
 17 18  1  0  0  0
 18 19  1  0  0  0
 18 25  1  0  0  0
 19 20  1  0  0  0
 20 21  1  0  0  0
 20 24  1  0  0  0
 21 22  1  0  0  0
 21 23  1  0  0  0
 23 51  1  0  0  0
 23 52  1  0  0  0
 24 53  1  0  0  0
 25 54  1  0  0  0
 26 55  1  0  0  0
 27 28  1  0  0  0
 28 29  2  0  0  0
 28 30  1  0  0  0
 30 31  1  0  0  0
 31 32  1  0  0  0
 31 36  1  0  0  0
 32 33  1  0  0  0
 33 34  2  0  0  0
 33 35  1  0  0  0
 35 56  1  0  0  0
 36 37  2  0  0  0
 36 38  1  0  0  0
 38 57  1  0  0  0
 39 40  1  0  0  0
 40 41  2  0  0  0
 40 42  1  0  0  0
 42 43  1  0  0  0
 43 44  1  0  0  0
 43 48  1  0  0  0
 44 45  1  0  0  0
 45 46  2  0  0  0
 45 47  1  0  0  0
 47 58  1  0  0  0
 48 49  2  0  0  0
 48 50  1  0  0  0
 50 59  1  0  0  0
M  END
>  <AUTHOR>
    GENERATED BY OPEN BABEL 2.4.1

>  <CHROM.1>
167.89890383,72.06776540,-173.44179290,111.02069532,169.48163408,102.53262232
-56.91271009,170.79644495,143.59556223,-40.83498014,-102.22166727,-100.70875499
175.79513509,-101.88461271,140.98367358,149.00822529,-168.72227912,143.72857119
62.03950337,102.89599489,-95.09237419,-60.70492797,68.05443973,-17.67871421
-112.47017089,-33.04763024,-158.09167279,-25.78091243,83.37741302,-175.65446433
-148.68895995,165.37727258,-162.90289216,56.00872486,-165.92183776,122.24629005
86.72078755,-9.18814977,-174.36960684,-1.58104000,-2.74574725,-5.62325867
0.87131228,-1.06397843,-1.53052066

>  <COMPND>
    UNNAMED

>  <MASTER>
        0    0    0    0    0    0    0    0  109    0  109    0

>  <Name>
FB1.pdb

>  <RI>
0

>  <Rbt.Current_Directory>
/home/fc/tossine/FB1_39T3/p3/1_clust02

>  <Rbt.Executable>
rbdock/0.1.0

>  <Rbt.Library>
librxdock.so/0.1.0

>  <Rbt.Parameter_File>
/cluster/rxdock/data/scripts/dock.prm

>  <Rbt.Receptor>
rx_1.prm

>  <SCORE>
104.81

>  <SCORE.INTER>
76.9068

>  <SCORE.INTER.CONST>
1

>  <SCORE.INTER.POLAR>
-1.39692

>  <SCORE.INTER.REPUL>
0.560471

>  <SCORE.INTER.ROT>
32

>  <SCORE.INTER.VDW>
41.454

>  <SCORE.INTER.norm>
1.53814

>  <SCORE.INTRA>
26.6101

>  <SCORE.INTRA.DIHEDRAL>
35.0153

>  <SCORE.INTRA.DIHEDRAL.0>
47.3121

>  <SCORE.INTRA.POLAR>
1.47808

>  <SCORE.INTRA.POLAR.0>
-1.47808

>  <SCORE.INTRA.REPUL>
0.0886172

>  <SCORE.INTRA.REPUL.0>
0

>  <SCORE.INTRA.VDW>
3.63396

>  <SCORE.INTRA.VDW.0>
-2.78316

>  <SCORE.INTRA.norm>
0.532203

>  <SCORE.RESTR>
1.2929

>  <SCORE.RESTR.CAVITY>
1.2929

>  <SCORE.RESTR.norm>
0.0258581

>  <SCORE.SYSTEM>
0

>  <SCORE.SYSTEM.CONST>
0

>  <SCORE.SYSTEM.DIHEDRAL>
0

>  <SCORE.SYSTEM.norm>
0

>  <SCORE.heavy>
50

>  <SCORE.norm>
2.0962

$$$$
