FB1.pdb
  RxDock  10072007263D
librxdock.so/0.1.0
 59 58  0  0  0  0  0  0  0  0999 V2000
    3.8517    2.8222   -4.9701 C   0  0  0  0  0  0
    2.5256    2.3413   -4.3858 C   0  0  0  0  0  0
    1.5498    1.8892   -5.4847 C   0  0  0  0  0  0
    0.9118    3.0649   -6.2660 C   0  0  0  0  0  0
    0.9692    2.9299   -7.8277 C   0  0  0  0  0  0
    1.5488    4.2409   -8.4074 C   0  0  0  0  0  0
    1.8010    1.6732   -8.3246 C   0  0  0  0  0  0
    1.2395    0.2272   -7.9246 C   0  0  0  0  0  0
   -0.0098   -0.0396   -6.9779 C   0  0  0  0  0  0
    0.1380   -1.3409   -5.9749 C   0  0  0  0  0  0
    1.5319   -1.3159   -5.3499 C   0  0  0  0  0  0
   -0.9611   -1.4715   -4.8260 C   0  0  0  0  0  0
   -2.4368   -2.0969   -5.0486 C   0  0  0  0  0  0
   -2.9762   -3.2995   -4.2007 C   0  0  0  0  0  0
   -3.7382   -2.9813   -2.8343 C   0  0  0  0  0  0
   -3.4534   -3.7167   -1.4658 C   0  0  0  0  0  0
   -2.6886   -5.0667   -1.4681 C   0  0  0  0  0  0
   -3.5608   -6.3715   -1.6289 C   0  0  0  0  0  0
   -2.8016   -7.7039   -1.6018 C   0  0  0  0  0  0
   -3.6254   -9.0205   -1.5231 C   0  0  0  0  0  0
   -4.2001   -9.5144   -0.1625 C   0  0  0  0  0  0
   -3.8585  -10.9425    0.2389 C   0  0  0  0  0  0
   -3.8711   -8.5689    0.9211 N   0  0  0  0  0  0
   -4.7880   -8.7770   -2.3556 O   0  0  0  0  0  0
   -4.5364   -6.3826   -0.5811 O   0  0  0  0  0  0
   -3.3420   -1.0128   -4.7803 O   0  0  0  0  0  0
    0.8933   -0.4335   -9.1720 O   0  0  0  0  0  0
   -0.2300   -0.0062   -9.8053 C   0  0  0  0  0  0
   -0.2970    0.8900  -10.6249 O   0  0  0  0  0  0
   -1.3725   -0.8962   -9.4004 C   0  0  0  0  0  0
   -1.7777   -1.8787  -10.5108 C   0  0  0  0  0  0
   -2.7097   -2.9871  -10.0047 C   0  0  0  0  0  0
   -1.9293   -4.0858   -9.3212 C   0  0  0  0  0  0
   -0.9149   -3.8876   -8.6614 O   0  0  0  0  0  0
   -2.4540   -5.3067   -9.5033 O   0  0  0  0  0  0
   -2.4922   -1.0380  -11.5778 C   0  0  0  0  0  0
   -2.6282    0.1730  -11.4920 O   0  0  0  0  0  0
   -3.0011   -1.7495  -12.5931 O   0  0  0  0  0  0
    2.1024    1.7695   -9.7736 O   0  0  0  0  0  0
    3.1265    2.6089  -10.1794 C   0  0  0  0  0  0
    3.8766    2.3875  -11.1211 O   0  0  0  0  0  0
    3.2262    3.8702   -9.3113 C   0  0  0  0  0  0
    4.6507    4.4941   -9.1843 C   0  0  0  0  0  0
    5.3168    5.0418  -10.4597 C   0  0  0  0  0  0
    6.4138    4.1556  -10.9754 C   0  0  0  0  0  0
    7.5786    4.1712  -10.6019 O   0  0  0  0  0  0
    5.9816    3.2947  -11.9094 O   0  0  0  0  0  0
    4.7786    5.5771   -8.1058 C   0  0  0  0  0  0
    5.3481    5.3918   -7.0484 O   0  0  0  0  0  0
    4.3080    6.7946   -8.4485 O   0  0  0  0  0  0
   -4.1493   -8.9741    1.8138 H   0  0  0  0  0  0
   -4.4550   -7.7361    0.8165 H   0  0  0  0  0  0
   -5.2773   -9.6266   -2.3506 H   0  0  0  0  0  0
   -4.8534   -5.4698   -0.4509 H   0  0  0  0  0  0
   -4.0269   -1.0153   -5.4698 H   0  0  0  0  0  0
   -1.9882   -6.0327   -9.0456 H   0  0  0  0  0  0
   -2.5567   -2.6198  -12.7472 H   0  0  0  0  0  0
    5.0095    3.4080  -11.9682 H   0  0  0  0  0  0
    4.4070    7.4913   -7.7622 H   0  0  0  0  0  0
  1  2  1  0  0  0
  2  3  1  0  0  0
  3  4  1  0  0  0
  4  5  1  0  0  0
  5  6  1  0  0  0
  5  7  1  0  0  0
  7  8  1  0  0  0
  7 39  1  0  0  0
  8  9  1  0  0  0
  8 27  1  0  0  0
  9 10  1  0  0  0
 10 11  1  0  0  0
 10 12  1  0  0  0
 12 13  1  0  0  0
 13 14  1  0  0  0
 13 26  1  0  0  0
 14 15  1  0  0  0
 15 16  1  0  0  0
 16 17  1  0  0  0
 17 18  1  0  0  0
 18 19  1  0  0  0
 18 25  1  0  0  0
 19 20  1  0  0  0
 20 21  1  0  0  0
 20 24  1  0  0  0
 21 22  1  0  0  0
 21 23  1  0  0  0
 23 51  1  0  0  0
 23 52  1  0  0  0
 24 53  1  0  0  0
 25 54  1  0  0  0
 26 55  1  0  0  0
 27 28  1  0  0  0
 28 29  2  0  0  0
 28 30  1  0  0  0
 30 31  1  0  0  0
 31 32  1  0  0  0
 31 36  1  0  0  0
 32 33  1  0  0  0
 33 34  2  0  0  0
 33 35  1  0  0  0
 35 56  1  0  0  0
 36 37  2  0  0  0
 36 38  1  0  0  0
 38 57  1  0  0  0
 39 40  1  0  0  0
 40 41  2  0  0  0
 40 42  1  0  0  0
 42 43  1  0  0  0
 43 44  1  0  0  0
 43 48  1  0  0  0
 44 45  1  0  0  0
 45 46  2  0  0  0
 45 47  1  0  0  0
 47 58  1  0  0  0
 48 49  2  0  0  0
 48 50  1  0  0  0
 50 59  1  0  0  0
M  END
>  <AUTHOR>
    GENERATED BY OPEN BABEL 2.4.1

>  <CHROM.1>
-74.89936485,130.99655904,-129.34592368,63.52015594,-5.19804397,77.86269416
-142.61157813,-73.88160228,44.67834659,81.67525012,123.80925743,88.93638774
136.06094251,-133.07776598,-17.20806478,-88.28194414,-178.80378622,170.22057463
38.79617586,-79.92262507,-126.84892125,176.54272577,-172.57387359,89.03918880
-105.36682384,166.97087555,-80.87706173,1.93476635,34.36012537,-177.87516181
-24.59885079,145.15257891,150.96723552,63.71616568,-105.66744730,106.10942566
-85.07080945,-5.04164378,-178.85770374,0.04269804,-0.86575397,-6.85984559
-0.70838278,0.85302974,1.80756473

>  <COMPND>
    UNNAMED

>  <MASTER>
        0    0    0    0    0    0    0    0  109    0  109    0

>  <Name>
FB1.pdb

>  <RI>
0

>  <Rbt.Current_Directory>
/cluster/tossine/FB1_39T3/p3/1_clust02

>  <Rbt.Executable>
rbdock/0.1.0

>  <Rbt.Library>
librxdock.so/0.1.0

>  <Rbt.Parameter_File>
/cluster/rxdock/data/scripts/dock.prm

>  <Rbt.Receptor>
rx_0.prm

>  <SCORE>
115.973

>  <SCORE.INTER>
47.9645

>  <SCORE.INTER.CONST>
1

>  <SCORE.INTER.POLAR>
-3.35872

>  <SCORE.INTER.REPUL>
1.13177

>  <SCORE.INTER.ROT>
32

>  <SCORE.INTER.VDW>
16.3253

>  <SCORE.INTER.norm>
0.959291

>  <SCORE.INTRA>
62.852

>  <SCORE.INTRA.DIHEDRAL>
68.4227

>  <SCORE.INTRA.DIHEDRAL.0>
47.3121

>  <SCORE.INTRA.POLAR>
0.383276

>  <SCORE.INTRA.POLAR.0>
-1.47808

>  <SCORE.INTRA.REPUL>
0

>  <SCORE.INTRA.REPUL.0>
0

>  <SCORE.INTRA.VDW>
27.3375

>  <SCORE.INTRA.VDW.0>
-2.78316

>  <SCORE.INTRA.norm>
1.25704

>  <SCORE.RESTR>
5.15602

>  <SCORE.RESTR.CAVITY>
5.15602

>  <SCORE.RESTR.norm>
0.10312

>  <SCORE.SYSTEM>
0

>  <SCORE.SYSTEM.CONST>
0

>  <SCORE.SYSTEM.DIHEDRAL>
0

>  <SCORE.SYSTEM.norm>
0

>  <SCORE.heavy>
50

>  <SCORE.norm>
2.31945

$$$$
