FB1.pdb
  RxDock  09132013223D
librxdock.so/0.1.0
 59 58  0  0  0  0  0  0  0  0999 V2000
   -4.2331   -2.0352   -3.3502 C   0  0  0  0  0  0
   -3.2357   -2.7998   -4.2174 C   0  0  0  0  0  0
   -2.6302   -1.9057   -5.3119 C   0  0  0  0  0  0
   -1.5938   -2.6355   -6.2024 C   0  0  0  0  0  0
   -0.8325   -1.7166   -7.2204 C   0  0  0  0  0  0
    0.2456   -0.9234   -6.4463 C   0  0  0  0  0  0
   -0.1899   -2.5122   -8.4337 C   0  0  0  0  0  0
   -1.1949   -3.3144   -9.3890 C   0  0  0  0  0  0
   -1.6949   -4.8041   -9.1465 C   0  0  0  0  0  0
   -3.2546   -4.9427   -8.6274 C   0  0  0  0  0  0
   -4.0993   -5.4990   -9.7725 C   0  0  0  0  0  0
   -3.4839   -5.8229   -7.3169 C   0  0  0  0  0  0
   -2.4128   -5.9510   -6.1107 C   0  0  0  0  0  0
   -2.7563   -6.6551   -4.7533 C   0  0  0  0  0  0
   -3.4469   -8.0938   -4.7999 C   0  0  0  0  0  0
   -2.9879   -9.2695   -5.7496 C   0  0  0  0  0  0
   -3.9464  -10.4619   -6.0083 C   0  0  0  0  0  0
   -5.3347  -10.1194   -6.6749 C   0  0  0  0  0  0
   -6.5465  -10.0735   -5.7357 C   0  0  0  0  0  0
   -6.4747   -9.1536   -4.4839 C   0  0  0  0  0  0
   -7.7491   -8.4264   -3.9621 C   0  0  0  0  0  0
   -8.5783   -7.6836   -5.0004 C   0  0  0  0  0  0
   -8.5919   -9.3444   -3.1727 N   0  0  0  0  0  0
   -6.0759  -10.0345   -3.4028 O   0  0  0  0  0  0
   -5.2124   -8.8481   -7.3219 O   0  0  0  0  0  0
   -1.3241   -6.7106   -6.6623 O   0  0  0  0  0  0
   -2.4168   -2.5293   -9.4443 O   0  0  0  0  0  0
   -3.0071   -2.3916  -10.6600 C   0  0  0  0  0  0
   -3.7691   -3.1821  -11.1834 O   0  0  0  0  0  0
   -2.6420   -1.0431  -11.2164 C   0  0  0  0  0  0
   -3.8035   -0.0392  -11.1409 C   0  0  0  0  0  0
   -3.5231    1.2458  -11.9306 C   0  0  0  0  0  0
   -4.7840    2.0577  -12.1161 C   0  0  0  0  0  0
   -5.3511    2.1929  -13.1949 O   0  0  0  0  0  0
   -5.2295    2.6194  -10.9826 O   0  0  0  0  0  0
   -5.0239   -0.7611  -11.7287 C   0  0  0  0  0  0
   -5.2587   -0.8069  -12.9266 O   0  0  0  0  0  0
   -5.8423   -1.2983  -10.8135 O   0  0  0  0  0  0
    0.7405   -1.6524   -9.2049 O   0  0  0  0  0  0
    0.2310   -0.5293   -9.8351 C   0  0  0  0  0  0
   -0.7399    0.1069   -9.4466 O   0  0  0  0  0  0
    1.0240   -0.1563  -11.0947 C   0  0  0  0  0  0
    2.3476    0.6335  -10.8526 C   0  0  0  0  0  0
    2.2417    2.1073  -10.4201 C   0  0  0  0  0  0
    1.3474    2.3068   -9.2306 C   0  0  0  0  0  0
    0.1846    2.6850   -9.2676 O   0  0  0  0  0  0
    1.9561    2.0028   -8.0742 O   0  0  0  0  0  0
    3.3319   -0.0498   -9.8952 C   0  0  0  0  0  0
    2.9831   -0.5881   -8.8631 O   0  0  0  0  0  0
    4.6098   -0.1111  -10.3246 O   0  0  0  0  0  0
   -8.5212   -9.0980   -2.1864 H   0  0  0  0  0  0
   -8.1989  -10.2861   -3.2377 H   0  0  0  0  0  0
   -5.9650   -9.4417   -2.6297 H   0  0  0  0  0  0
   -6.0543   -8.6545   -7.7739 H   0  0  0  0  0  0
   -1.0901   -6.3206   -7.5212 H   0  0  0  0  0  0
   -4.7027    2.4215  -10.1845 H   0  0  0  0  0  0
   -6.6325   -1.7593  -11.1903 H   0  0  0  0  0  0
    1.3140    2.1961   -7.3589 H   0  0  0  0  0  0
    4.7966    0.3767  -11.1573 H   0  0  0  0  0  0
  1  2  1  0  0  0
  2  3  1  0  0  0
  3  4  1  0  0  0
  4  5  1  0  0  0
  5  6  1  0  0  0
  5  7  1  0  0  0
  7  8  1  0  0  0
  7 39  1  0  0  0
  8  9  1  0  0  0
  8 27  1  0  0  0
  9 10  1  0  0  0
 10 11  1  0  0  0
 10 12  1  0  0  0
 12 13  1  0  0  0
 13 14  1  0  0  0
 13 26  1  0  0  0
 14 15  1  0  0  0
 15 16  1  0  0  0
 16 17  1  0  0  0
 17 18  1  0  0  0
 18 19  1  0  0  0
 18 25  1  0  0  0
 19 20  1  0  0  0
 20 21  1  0  0  0
 20 24  1  0  0  0
 21 22  1  0  0  0
 21 23  1  0  0  0
 23 51  1  0  0  0
 23 52  1  0  0  0
 24 53  1  0  0  0
 25 54  1  0  0  0
 26 55  1  0  0  0
 27 28  1  0  0  0
 28 29  2  0  0  0
 28 30  1  0  0  0
 30 31  1  0  0  0
 31 32  1  0  0  0
 31 36  1  0  0  0
 32 33  1  0  0  0
 33 34  2  0  0  0
 33 35  1  0  0  0
 35 56  1  0  0  0
 36 37  2  0  0  0
 36 38  1  0  0  0
 38 57  1  0  0  0
 39 40  1  0  0  0
 40 41  2  0  0  0
 40 42  1  0  0  0
 42 43  1  0  0  0
 43 44  1  0  0  0
 43 48  1  0  0  0
 44 45  1  0  0  0
 45 46  2  0  0  0
 45 47  1  0  0  0
 47 58  1  0  0  0
 48 49  2  0  0  0
 48 50  1  0  0  0
 50 59  1  0  0  0
M  END
>  <AUTHOR>
    GENERATED BY OPEN BABEL 2.4.1

>  <CHROM.1>
179.05722084,-173.19683685,76.87941062,61.38022612,-87.25517310,-62.44325935
105.95022449,137.29739317,108.04721133,31.76756306,170.97106504,48.64501348
48.34992831,44.74035438,-162.83952536,60.46934160,-101.86292165,54.14478644
177.11566484,145.47067280,-48.43181749,175.84436200,107.37803062,83.87732414
-105.16128338,-169.59620878,166.36331742,-84.48723735,-109.63727857,-1.26114579
179.64164708,29.09691101,-80.50427085,-72.63276866,52.14631898,-42.62019085
-99.62214207,177.79413562,6.62738949,-2.58142563,-3.13779391,-8.25132914
-2.05694843,-0.28208754,-0.65407987

>  <COMPND>
    UNNAMED

>  <MASTER>
        0    0    0    0    0    0    0    0  109    0  109    0

>  <Name>
FB1.pdb

>  <RI>
0

>  <Rbt.Current_Directory>
/home/fc/tossine/FB1_39T3/p3/1_clust02

>  <Rbt.Executable>
rbdock/0.1.0

>  <Rbt.Library>
librxdock.so/0.1.0

>  <Rbt.Parameter_File>
/cluster/rxdock/data/scripts/dock.prm

>  <Rbt.Receptor>
rx_3.prm

>  <SCORE>
46.4468

>  <SCORE.INTER>
22.6466

>  <SCORE.INTER.CONST>
1

>  <SCORE.INTER.POLAR>
-0.848528

>  <SCORE.INTER.REPUL>
0.945741

>  <SCORE.INTER.ROT>
32

>  <SCORE.INTER.VDW>
-16.5971

>  <SCORE.INTER.norm>
0.452932

>  <SCORE.INTRA>
18.7513

>  <SCORE.INTRA.DIHEDRAL>
34.6479

>  <SCORE.INTRA.DIHEDRAL.0>
47.3121

>  <SCORE.INTRA.POLAR>
1.45764

>  <SCORE.INTRA.POLAR.0>
-1.47808

>  <SCORE.INTRA.REPUL>
0

>  <SCORE.INTRA.REPUL.0>
0

>  <SCORE.INTRA.VDW>
-3.52857

>  <SCORE.INTRA.VDW.0>
-2.78316

>  <SCORE.INTRA.norm>
0.375027

>  <SCORE.RESTR>
5.04884

>  <SCORE.RESTR.CAVITY>
5.04884

>  <SCORE.RESTR.norm>
0.100977

>  <SCORE.SYSTEM>
0

>  <SCORE.SYSTEM.CONST>
0

>  <SCORE.SYSTEM.DIHEDRAL>
0

>  <SCORE.SYSTEM.norm>
0

>  <SCORE.heavy>
50

>  <SCORE.norm>
0.928935

$$$$
