FB1.pdb
  RxDock  10072009143D
librxdock.so/0.1.0
 59 58  0  0  0  0  0  0  0  0999 V2000
    1.7413    2.0334  -11.3205 C   0  0  0  0  0  0
    2.1933    0.5999  -11.5889 C   0  0  0  0  0  0
    2.7390   -0.0724  -10.3183 C   0  0  0  0  0  0
    2.0167   -1.3953   -9.9606 C   0  0  0  0  0  0
    0.6999   -1.6692  -10.7678 C   0  0  0  0  0  0
    0.6904   -3.1562  -11.1912 C   0  0  0  0  0  0
   -0.6206   -1.2978   -9.9702 C   0  0  0  0  0  0
   -1.7535   -2.4265   -9.8765 C   0  0  0  0  0  0
   -2.2232   -3.1425   -8.5367 C   0  0  0  0  0  0
   -1.0816   -4.0862   -7.8106 C   0  0  0  0  0  0
   -0.9281   -3.6322   -6.3599 C   0  0  0  0  0  0
   -1.3388   -5.6600   -7.8542 C   0  0  0  0  0  0
   -2.6840   -6.3752   -7.3088 C   0  0  0  0  0  0
   -2.9964   -6.5226   -5.7801 C   0  0  0  0  0  0
   -3.1856   -7.9916   -5.1840 C   0  0  0  0  0  0
   -4.3434   -8.4062   -4.1929 C   0  0  0  0  0  0
   -4.1437   -8.2242   -2.6650 C   0  0  0  0  0  0
   -3.2704   -6.9917   -2.2095 C   0  0  0  0  0  0
   -4.0135   -5.8644   -1.4819 C   0  0  0  0  0  0
   -3.2666   -4.5209   -1.2462 C   0  0  0  0  0  0
   -2.4049   -3.8856   -2.3773 C   0  0  0  0  0  0
   -2.1470   -4.7534   -3.6011 C   0  0  0  0  0  0
   -2.9403   -2.5678   -2.7686 N   0  0  0  0  0  0
   -4.3184   -3.5559   -0.9886 O   0  0  0  0  0  0
   -2.2319   -7.4788   -1.3528 O   0  0  0  0  0  0
   -3.7627   -5.5859   -7.8378 O   0  0  0  0  0  0
   -2.9667   -1.8299  -10.4101 O   0  0  0  0  0  0
   -3.5396   -0.8385   -9.6792 C   0  0  0  0  0  0
   -3.3668   -0.6267   -8.4940 O   0  0  0  0  0  0
   -4.3520    0.0257  -10.6036 C   0  0  0  0  0  0
   -3.6458    0.2827  -11.9444 C   0  0  0  0  0  0
   -4.1519   -0.6379  -13.0623 C   0  0  0  0  0  0
   -3.8853   -2.0891  -12.7360 C   0  0  0  0  0  0
   -4.7571   -2.8764  -12.3840 O   0  0  0  0  0  0
   -2.5975   -2.4390  -12.8697 O   0  0  0  0  0  0
   -3.9347    1.7478  -12.2993 C   0  0  0  0  0  0
   -3.0563    2.5589  -12.5502 O   0  0  0  0  0  0
   -5.2325    2.0799  -12.2635 O   0  0  0  0  0  0
   -0.2996   -0.7230   -8.6411 O   0  0  0  0  0  0
    0.1825    0.5740   -8.5830 C   0  0  0  0  0  0
   -0.1694    1.4816   -9.3252 O   0  0  0  0  0  0
    1.2229    0.7609   -7.4708 C   0  0  0  0  0  0
    1.3238    2.1982   -6.8722 C   0  0  0  0  0  0
    0.4088    3.2905   -7.4554 C   0  0  0  0  0  0
    0.9714    3.9277   -8.6931 C   0  0  0  0  0  0
    0.3600    4.1279   -9.7337 O   0  0  0  0  0  0
    2.2545    4.2912   -8.5453 O   0  0  0  0  0  0
    1.1913    2.2640   -5.3456 C   0  0  0  0  0  0
    0.1228    2.1889   -4.7718 O   0  0  0  0  0  0
    2.3555    2.3040   -4.6643 O   0  0  0  0  0  0
   -2.3293   -2.1544   -3.4717 H   0  0  0  0  0  0
   -2.8800   -1.9389   -1.9646 H   0  0  0  0  0  0
   -4.7335   -3.4038   -1.8637 H   0  0  0  0  0  0
   -2.6418   -8.0294   -0.6605 H   0  0  0  0  0  0
   -4.5987   -6.0179   -7.5948 H   0  0  0  0  0  0
   -1.9654   -1.6956  -12.9056 H   0  0  0  0  0  0
   -5.4427    2.9569  -12.6703 H   0  0  0  0  0  0
    2.5318    4.6961   -9.3941 H   0  0  0  0  0  0
    2.2793    2.5576   -3.7176 H   0  0  0  0  0  0
  1  2  1  0  0  0
  2  3  1  0  0  0
  3  4  1  0  0  0
  4  5  1  0  0  0
  5  6  1  0  0  0
  5  7  1  0  0  0
  7  8  1  0  0  0
  7 39  1  0  0  0
  8  9  1  0  0  0
  8 27  1  0  0  0
  9 10  1  0  0  0
 10 11  1  0  0  0
 10 12  1  0  0  0
 12 13  1  0  0  0
 13 14  1  0  0  0
 13 26  1  0  0  0
 14 15  1  0  0  0
 15 16  1  0  0  0
 16 17  1  0  0  0
 17 18  1  0  0  0
 18 19  1  0  0  0
 18 25  1  0  0  0
 19 20  1  0  0  0
 20 21  1  0  0  0
 20 24  1  0  0  0
 21 22  1  0  0  0
 21 23  1  0  0  0
 23 51  1  0  0  0
 23 52  1  0  0  0
 24 53  1  0  0  0
 25 54  1  0  0  0
 26 55  1  0  0  0
 27 28  1  0  0  0
 28 29  2  0  0  0
 28 30  1  0  0  0
 30 31  1  0  0  0
 31 32  1  0  0  0
 31 36  1  0  0  0
 32 33  1  0  0  0
 33 34  2  0  0  0
 33 35  1  0  0  0
 35 56  1  0  0  0
 36 37  2  0  0  0
 36 38  1  0  0  0
 38 57  1  0  0  0
 39 40  1  0  0  0
 40 41  2  0  0  0
 40 42  1  0  0  0
 42 43  1  0  0  0
 43 44  1  0  0  0
 43 48  1  0  0  0
 44 45  1  0  0  0
 45 46  2  0  0  0
 45 47  1  0  0  0
 47 58  1  0  0  0
 48 49  2  0  0  0
 48 50  1  0  0  0
 50 59  1  0  0  0
M  END
>  <AUTHOR>
    GENERATED BY OPEN BABEL 2.4.1

>  <CHROM.1>
123.93184189,-11.45894848,136.89785290,-128.22775262,114.58487812,74.35418478
-65.71679182,-68.64534967,125.76839170,-55.46585060,-73.16589687,-120.46046070
175.59253747,-135.15630471,-87.38921725,33.37142116,111.42389578,-168.84963127
-51.28479534,43.09558288,-10.19860999,-73.34243107,176.92510715,-20.39615499
-40.83686947,99.04022266,-61.85025501,125.73790859,105.76857910,16.63361079
-167.77581454,35.49760932,-152.08667886,-1.14066585,-84.02475118,-78.01454600
132.73557479,-179.82030128,166.16427718,-1.59331587,-1.66711450,-7.85896296
-1.14268558,0.93858182,2.03360861

>  <COMPND>
    UNNAMED

>  <MASTER>
        0    0    0    0    0    0    0    0  109    0  109    0

>  <Name>
FB1.pdb

>  <RI>
0

>  <Rbt.Current_Directory>
/cluster/tossine/FB1_39T3/p3/1_clust02

>  <Rbt.Executable>
rbdock/0.1.0

>  <Rbt.Library>
librxdock.so/0.1.0

>  <Rbt.Parameter_File>
/cluster/rxdock/data/scripts/dock.prm

>  <Rbt.Receptor>
rx_3.prm

>  <SCORE>
126.373

>  <SCORE.INTER>
81.3662

>  <SCORE.INTER.CONST>
1

>  <SCORE.INTER.POLAR>
-1.8385

>  <SCORE.INTER.REPUL>
0.402846

>  <SCORE.INTER.ROT>
32

>  <SCORE.INTER.VDW>
48.2028

>  <SCORE.INTER.norm>
1.62732

>  <SCORE.INTRA>
41.5384

>  <SCORE.INTRA.DIHEDRAL>
55.8418

>  <SCORE.INTRA.DIHEDRAL.0>
47.3121

>  <SCORE.INTRA.POLAR>
1.47808

>  <SCORE.INTRA.POLAR.0>
-1.47808

>  <SCORE.INTRA.REPUL>
0

>  <SCORE.INTRA.REPUL.0>
0

>  <SCORE.INTRA.VDW>
8.592

>  <SCORE.INTRA.VDW.0>
-2.78316

>  <SCORE.INTRA.norm>
0.830768

>  <SCORE.RESTR>
3.4681

>  <SCORE.RESTR.CAVITY>
3.4681

>  <SCORE.RESTR.norm>
0.0693621

>  <SCORE.SYSTEM>
0

>  <SCORE.SYSTEM.CONST>
0

>  <SCORE.SYSTEM.DIHEDRAL>
0

>  <SCORE.SYSTEM.norm>
0

>  <SCORE.heavy>
50

>  <SCORE.norm>
2.52745

$$$$
