FB1.pdb
  RxDock  10072007243D
librxdock.so/0.1.0
 59 58  0  0  0  0  0  0  0  0999 V2000
   -2.9836   -1.4834  -11.9311 C   0  0  0  0  0  0
   -1.6441   -1.0781  -11.3203 C   0  0  0  0  0  0
   -0.5900   -2.1870  -11.4730 C   0  0  0  0  0  0
    0.6945   -1.9364  -10.6442 C   0  0  0  0  0  0
    0.4487   -1.4316   -9.1795 C   0  0  0  0  0  0
   -0.5479   -0.2507   -9.2338 C   0  0  0  0  0  0
   -0.0680   -2.5656   -8.1972 C   0  0  0  0  0  0
    0.0590   -2.2783   -6.6264 C   0  0  0  0  0  0
    1.3828   -1.7977   -5.8882 C   0  0  0  0  0  0
    1.4537   -0.1826   -5.5602 C   0  0  0  0  0  0
    2.8649    0.1536   -5.0811 C   0  0  0  0  0  0
    1.0464    0.7956   -6.7528 C   0  0  0  0  0  0
    2.1038    1.4660   -7.7781 C   0  0  0  0  0  0
    2.2476    0.9927   -9.2651 C   0  0  0  0  0  0
    2.5538    2.0907  -10.3831 C   0  0  0  0  0  0
    1.5922    2.4203  -11.5919 C   0  0  0  0  0  0
    0.2854    3.2162  -11.3343 C   0  0  0  0  0  0
    0.3816    4.4215  -10.3208 C   0  0  0  0  0  0
   -0.3416    5.7113  -10.7284 C   0  0  0  0  0  0
    0.1361    7.0532  -10.1044 C   0  0  0  0  0  0
    0.2409    7.2144   -8.5590 C   0  0  0  0  0  0
    0.9335    8.4726   -8.0544 C   0  0  0  0  0  0
   -1.0797    7.0481   -7.9226 N   0  0  0  0  0  0
    1.4914    7.2236  -10.5924 O   0  0  0  0  0  0
   -0.1435    3.9839   -9.0628 O   0  0  0  0  0  0
    1.7141    2.8473   -7.8600 O   0  0  0  0  0  0
   -0.9178   -1.2460   -6.3218 O   0  0  0  0  0  0
   -2.2141   -1.6367   -6.2112 C   0  0  0  0  0  0
   -3.1396   -1.2642   -6.9068 O   0  0  0  0  0  0
   -2.3036   -2.6920   -5.1436 C   0  0  0  0  0  0
   -2.1542   -2.1134   -3.7275 C   0  0  0  0  0  0
   -2.1783   -3.1979   -2.6428 C   0  0  0  0  0  0
   -3.5511   -3.3185   -2.0229 C   0  0  0  0  0  0
   -3.7562   -3.8142   -0.9203 O   0  0  0  0  0  0
   -4.5313   -2.8277   -2.7957 O   0  0  0  0  0  0
   -0.8041   -1.3834   -3.7105 C   0  0  0  0  0  0
    0.2478   -1.9332   -3.4212 O   0  0  0  0  0  0
   -0.8790   -0.0753   -3.9920 O   0  0  0  0  0  0
   -1.4311   -3.0164   -8.5698 O   0  0  0  0  0  0
   -1.5570   -4.1157   -9.4027 C   0  0  0  0  0  0
   -0.6213   -4.7924   -9.8090 O   0  0  0  0  0  0
   -3.0182   -4.4050   -9.7709 C   0  0  0  0  0  0
   -3.6097   -5.7325   -9.2032 C   0  0  0  0  0  0
   -4.0158   -5.7669   -7.7185 C   0  0  0  0  0  0
   -2.8647   -6.0674   -6.8024 C   0  0  0  0  0  0
   -1.8618   -5.3800   -6.6676 O   0  0  0  0  0  0
   -3.0489   -7.1957   -6.1000 O   0  0  0  0  0  0
   -4.7848   -6.3023  -10.0074 C   0  0  0  0  0  0
   -4.7086   -6.5656  -11.1913 O   0  0  0  0  0  0
   -5.8892   -6.5968   -9.2900 O   0  0  0  0  0  0
   -1.7922    7.4700   -8.5165 H   0  0  0  0  0  0
   -1.0977    7.5961   -7.0596 H   0  0  0  0  0  0
    1.3899    7.7105  -11.4374 H   0  0  0  0  0  0
   -1.0007    3.5489   -9.2258 H   0  0  0  0  0  0
    0.9124    2.9017   -8.4066 H   0  0  0  0  0  0
   -4.2628   -2.1148   -3.4065 H   0  0  0  0  0  0
   -0.0411    0.4267   -3.8349 H   0  0  0  0  0  0
   -2.8775   -6.9734   -5.1606 H   0  0  0  0  0  0
   -6.7048   -6.1192   -9.5599 H   0  0  0  0  0  0
  1  2  1  0  0  0
  2  3  1  0  0  0
  3  4  1  0  0  0
  4  5  1  0  0  0
  5  6  1  0  0  0
  5  7  1  0  0  0
  7  8  1  0  0  0
  7 39  1  0  0  0
  8  9  1  0  0  0
  8 27  1  0  0  0
  9 10  1  0  0  0
 10 11  1  0  0  0
 10 12  1  0  0  0
 12 13  1  0  0  0
 13 14  1  0  0  0
 13 26  1  0  0  0
 14 15  1  0  0  0
 15 16  1  0  0  0
 16 17  1  0  0  0
 17 18  1  0  0  0
 18 19  1  0  0  0
 18 25  1  0  0  0
 19 20  1  0  0  0
 20 21  1  0  0  0
 20 24  1  0  0  0
 21 22  1  0  0  0
 21 23  1  0  0  0
 23 51  1  0  0  0
 23 52  1  0  0  0
 24 53  1  0  0  0
 25 54  1  0  0  0
 26 55  1  0  0  0
 27 28  1  0  0  0
 28 29  2  0  0  0
 28 30  1  0  0  0
 30 31  1  0  0  0
 31 32  1  0  0  0
 31 36  1  0  0  0
 32 33  1  0  0  0
 33 34  2  0  0  0
 33 35  1  0  0  0
 35 56  1  0  0  0
 36 37  2  0  0  0
 36 38  1  0  0  0
 38 57  1  0  0  0
 39 40  1  0  0  0
 40 41  2  0  0  0
 40 42  1  0  0  0
 42 43  1  0  0  0
 43 44  1  0  0  0
 43 48  1  0  0  0
 44 45  1  0  0  0
 45 46  2  0  0  0
 45 47  1  0  0  0
 47 58  1  0  0  0
 48 49  2  0  0  0
 48 50  1  0  0  0
 50 59  1  0  0  0
M  END
>  <AUTHOR>
    GENERATED BY OPEN BABEL 2.4.1

>  <CHROM.1>
-169.16883079,43.77916520,-49.23355952,162.62191621,-50.83799969,93.69021656
100.10688787,78.23987069,-170.28935791,-94.67176735,106.63421892,143.78427743
-74.92797467,-117.88604360,73.66757800,40.74481029,136.97117790,-156.83111216
-48.56578012,-53.66070087,170.11777307,89.21109620,-37.61392442,-118.29321823
73.57806829,-177.25392566,-98.08668189,-88.74497006,-158.85629251,-27.67915406
170.25964903,3.74435587,-113.02368506,76.92196814,-84.21737806,56.65216301
62.05924235,-129.54257567,120.61553126,-1.01000156,-0.80541771,-7.74193658
2.87960590,1.18782234,1.58842982

>  <COMPND>
    UNNAMED

>  <MASTER>
        0    0    0    0    0    0    0    0  109    0  109    0

>  <Name>
FB1.pdb

>  <RI>
0

>  <Rbt.Current_Directory>
/cluster/tossine/FB1_39T3/p3/1_clust02

>  <Rbt.Executable>
rbdock/0.1.0

>  <Rbt.Library>
librxdock.so/0.1.0

>  <Rbt.Parameter_File>
/cluster/rxdock/data/scripts/dock.prm

>  <Rbt.Receptor>
rx_0.prm

>  <SCORE>
88.852

>  <SCORE.INTER>
26.0024

>  <SCORE.INTER.CONST>
1

>  <SCORE.INTER.POLAR>
-0.374883

>  <SCORE.INTER.REPUL>
2.23486

>  <SCORE.INTER.ROT>
32

>  <SCORE.INTER.VDW>
-21.2973

>  <SCORE.INTER.norm>
0.520048

>  <SCORE.INTRA>
61.4884

>  <SCORE.INTRA.DIHEDRAL>
78.5487

>  <SCORE.INTRA.DIHEDRAL.0>
47.3121

>  <SCORE.INTRA.POLAR>
0.640185

>  <SCORE.INTRA.POLAR.0>
-1.47808

>  <SCORE.INTRA.REPUL>
0

>  <SCORE.INTRA.REPUL.0>
0

>  <SCORE.INTRA.VDW>
20.0374

>  <SCORE.INTRA.VDW.0>
-2.78316

>  <SCORE.INTRA.norm>
1.22977

>  <SCORE.RESTR>
1.36125

>  <SCORE.RESTR.CAVITY>
1.36125

>  <SCORE.RESTR.norm>
0.0272249

>  <SCORE.SYSTEM>
0

>  <SCORE.SYSTEM.CONST>
0

>  <SCORE.SYSTEM.DIHEDRAL>
0

>  <SCORE.SYSTEM.norm>
0

>  <SCORE.heavy>
50

>  <SCORE.norm>
1.77704

$$$$
