FB1.pdb
  RxDock  10072008393D
librxdock.so/0.1.0
 59 58  0  0  0  0  0  0  0  0999 V2000
   -0.2651   -0.3841  -10.4343 C   0  0  0  0  0  0
   -0.7457   -1.8242  -10.5979 C   0  0  0  0  0  0
    0.3656   -2.8357  -10.2721 C   0  0  0  0  0  0
    0.1963   -3.5153   -8.8903 C   0  0  0  0  0  0
   -1.0811   -4.4142   -8.7472 C   0  0  0  0  0  0
   -0.7509   -5.8190   -9.3023 C   0  0  0  0  0  0
   -1.6278   -4.5057   -7.2603 C   0  0  0  0  0  0
   -1.8595   -3.1226   -6.4860 C   0  0  0  0  0  0
   -2.7916   -2.9322   -5.2120 C   0  0  0  0  0  0
   -2.0000   -2.8969   -3.7651 C   0  0  0  0  0  0
   -1.5262   -1.4677   -3.5062 C   0  0  0  0  0  0
   -2.8190   -3.4259   -2.5025 C   0  0  0  0  0  0
   -3.4723   -4.9027   -2.3983 C   0  0  0  0  0  0
   -2.6499   -6.2069   -2.6788 C   0  0  0  0  0  0
   -3.2524   -7.6021   -2.1894 C   0  0  0  0  0  0
   -3.8016   -7.8711   -0.7331 C   0  0  0  0  0  0
   -3.5379   -9.2430   -0.0579 C   0  0  0  0  0  0
   -4.5525  -10.4027   -0.3965 C   0  0  0  0  0  0
   -5.1528  -10.3896   -1.8079 C   0  0  0  0  0  0
   -6.2047  -11.4756   -2.1719 C   0  0  0  0  0  0
   -6.1130  -12.9036   -1.5573 C   0  0  0  0  0  0
   -7.3607  -13.7690   -1.6651 C   0  0  0  0  0  0
   -4.9286  -13.6202   -2.0674 N   0  0  0  0  0  0
   -7.4654  -10.9412   -1.6936 O   0  0  0  0  0  0
   -3.8785  -11.6505   -0.2006 O   0  0  0  0  0  0
   -3.9065   -5.0192   -1.0328 O   0  0  0  0  0  0
   -0.5480   -2.6811   -6.0415 O   0  0  0  0  0  0
    0.0224   -1.6557   -6.7260 C   0  0  0  0  0  0
   -0.5076   -0.9858   -7.5918 O   0  0  0  0  0  0
    1.3962   -1.4143   -6.1641 C   0  0  0  0  0  0
    2.0464   -0.1383   -6.7222 C   0  0  0  0  0  0
    1.9712    1.0383   -5.7407 C   0  0  0  0  0  0
    0.5912    1.6537   -5.7321 C   0  0  0  0  0  0
   -0.2071    1.5164   -4.8114 O   0  0  0  0  0  0
    0.3191    2.3709   -6.8324 O   0  0  0  0  0  0
    3.5126   -0.4984   -6.9991 C   0  0  0  0  0  0
    4.3134    0.2891   -7.4797 O   0  0  0  0  0  0
    3.8332   -1.7683   -6.7156 O   0  0  0  0  0  0
   -2.8145   -5.3917   -7.1797 O   0  0  0  0  0  0
   -3.8715   -5.1577   -8.0435 C   0  0  0  0  0  0
   -3.8939   -4.2780   -8.8944 O   0  0  0  0  0  0
   -5.0344   -6.1337   -7.8209 C   0  0  0  0  0  0
   -5.0102   -7.4265   -8.6941 C   0  0  0  0  0  0
   -6.1886   -8.4089   -8.5647 C   0  0  0  0  0  0
   -6.0857   -9.2923   -7.3549 C   0  0  0  0  0  0
   -6.9918   -9.5352   -6.5696 O   0  0  0  0  0  0
   -4.8646   -9.8304   -7.2148 O   0  0  0  0  0  0
   -4.7880   -7.1806  -10.1915 C   0  0  0  0  0  0
   -3.8691   -7.6767  -10.8129 O   0  0  0  0  0  0
   -5.7459   -6.4571  -10.8083 O   0  0  0  0  0  0
   -4.6419  -14.3202   -1.3845 H   0  0  0  0  0  0
   -4.1459  -12.9641   -2.1165 H   0  0  0  0  0  0
   -7.3439  -10.8523   -0.7247 H   0  0  0  0  0  0
   -3.2458  -11.7726   -0.9323 H   0  0  0  0  0  0
   -4.5236   -4.2910   -0.8503 H   0  0  0  0  0  0
   -0.5101    2.8855   -6.7997 H   0  0  0  0  0  0
    4.8030   -1.9621   -6.7421 H   0  0  0  0  0  0
   -4.8199  -10.1936   -6.3052 H   0  0  0  0  0  0
   -5.7524   -6.5191  -11.7892 H   0  0  0  0  0  0
  1  2  1  0  0  0
  2  3  1  0  0  0
  3  4  1  0  0  0
  4  5  1  0  0  0
  5  6  1  0  0  0
  5  7  1  0  0  0
  7  8  1  0  0  0
  7 39  1  0  0  0
  8  9  1  0  0  0
  8 27  1  0  0  0
  9 10  1  0  0  0
 10 11  1  0  0  0
 10 12  1  0  0  0
 12 13  1  0  0  0
 13 14  1  0  0  0
 13 26  1  0  0  0
 14 15  1  0  0  0
 15 16  1  0  0  0
 16 17  1  0  0  0
 17 18  1  0  0  0
 18 19  1  0  0  0
 18 25  1  0  0  0
 19 20  1  0  0  0
 20 21  1  0  0  0
 20 24  1  0  0  0
 21 22  1  0  0  0
 21 23  1  0  0  0
 23 51  1  0  0  0
 23 52  1  0  0  0
 24 53  1  0  0  0
 25 54  1  0  0  0
 26 55  1  0  0  0
 27 28  1  0  0  0
 28 29  2  0  0  0
 28 30  1  0  0  0
 30 31  1  0  0  0
 31 32  1  0  0  0
 31 36  1  0  0  0
 32 33  1  0  0  0
 33 34  2  0  0  0
 33 35  1  0  0  0
 35 56  1  0  0  0
 36 37  2  0  0  0
 36 38  1  0  0  0
 38 57  1  0  0  0
 39 40  1  0  0  0
 40 41  2  0  0  0
 40 42  1  0  0  0
 42 43  1  0  0  0
 43 44  1  0  0  0
 43 48  1  0  0  0
 44 45  1  0  0  0
 45 46  2  0  0  0
 45 47  1  0  0  0
 47 58  1  0  0  0
 48 49  2  0  0  0
 48 50  1  0  0  0
 50 59  1  0  0  0
M  END
>  <AUTHOR>
    GENERATED BY OPEN BABEL 2.4.1

>  <CHROM.1>
103.91470491,64.32200529,84.83759146,51.06806242,160.00500328,-52.17583130
100.03241603,104.93105587,85.41402929,57.06696238,51.42707789,164.26446240
57.41644334,-49.50245743,-141.71382146,-84.87614575,32.98552616,-177.41947242
-73.25433370,-33.13821806,164.11608320,-61.81671470,154.09998363,7.55719012
-171.26324542,101.50447692,-77.34299416,178.39123296,106.97198552,-171.48970235
-169.89081886,1.25075300,-92.20514250,-176.99606620,-79.65924224,122.50480495
134.02170227,165.99732169,-162.76007051,-2.48520852,-5.27026565,-5.73420607
0.53348896,-0.95101228,-1.36862051

>  <COMPND>
    UNNAMED

>  <MASTER>
        0    0    0    0    0    0    0    0  109    0  109    0

>  <Name>
FB1.pdb

>  <RI>
0

>  <Rbt.Current_Directory>
/cluster/tossine/FB1_39T3/p3/1_clust02

>  <Rbt.Executable>
rbdock/0.1.0

>  <Rbt.Library>
librxdock.so/0.1.0

>  <Rbt.Parameter_File>
/cluster/rxdock/data/scripts/dock.prm

>  <Rbt.Receptor>
rx_2.prm

>  <SCORE>
85.3297

>  <SCORE.INTER>
65.7596

>  <SCORE.INTER.CONST>
1

>  <SCORE.INTER.POLAR>
-2.47217

>  <SCORE.INTER.REPUL>
1.42409

>  <SCORE.INTER.ROT>
32

>  <SCORE.INTER.VDW>
29.6445

>  <SCORE.INTER.norm>
1.31519

>  <SCORE.INTRA>
11.9164

>  <SCORE.INTRA.DIHEDRAL>
13.5712

>  <SCORE.INTRA.DIHEDRAL.0>
47.3121

>  <SCORE.INTRA.POLAR>
1.46244

>  <SCORE.INTRA.POLAR.0>
-1.47808

>  <SCORE.INTRA.REPUL>
0

>  <SCORE.INTRA.REPUL.0>
0

>  <SCORE.INTRA.VDW>
0.158452

>  <SCORE.INTRA.VDW.0>
-2.78316

>  <SCORE.INTRA.norm>
0.238327

>  <SCORE.RESTR>
7.65379

>  <SCORE.RESTR.CAVITY>
7.65379

>  <SCORE.RESTR.norm>
0.153076

>  <SCORE.SYSTEM>
0

>  <SCORE.SYSTEM.CONST>
0

>  <SCORE.SYSTEM.DIHEDRAL>
0

>  <SCORE.SYSTEM.norm>
0

>  <SCORE.heavy>
50

>  <SCORE.norm>
1.70659

$$$$
