FB1.pdb
  RxDock  10072008083D
librxdock.so/0.1.0
 59 58  0  0  0  0  0  0  0  0999 V2000
   -5.9311  -10.6253   -3.0888 C   0  0  0  0  0  0
   -6.3377   -9.2713   -3.6655 C   0  0  0  0  0  0
   -6.0754   -9.1948   -5.1786 C   0  0  0  0  0  0
   -4.5715   -9.2374   -5.5476 C   0  0  0  0  0  0
   -3.8923   -7.8339   -5.7188 C   0  0  0  0  0  0
   -2.3589   -8.0315   -5.7038 C   0  0  0  0  0  0
   -4.3524   -7.0631   -7.0272 C   0  0  0  0  0  0
   -3.4062   -5.8771   -7.5413 C   0  0  0  0  0  0
   -3.5404   -5.1427   -8.9452 C   0  0  0  0  0  0
   -2.6672   -3.7509   -9.0928 C   0  0  0  0  0  0
   -1.1815   -4.1066   -9.0798 C   0  0  0  0  0  0
   -2.9904   -2.8501  -10.3691 C   0  0  0  0  0  0
   -2.6998   -1.2605  -10.4552 C   0  0  0  0  0  0
   -1.4300   -0.6027   -9.8141 C   0  0  0  0  0  0
   -0.0221   -0.8105  -10.5379 C   0  0  0  0  0  0
    1.2359    0.1188  -10.3180 C   0  0  0  0  0  0
    1.4038    1.3957  -11.1833 C   0  0  0  0  0  0
    2.3296    2.5298  -10.5951 C   0  0  0  0  0  0
    1.6800    3.4790   -9.5804 C   0  0  0  0  0  0
    2.2018    4.9417   -9.5002 C   0  0  0  0  0  0
    1.5338    5.9686   -8.5385 C   0  0  0  0  0  0
    2.1205    7.3732   -8.5336 C   0  0  0  0  0  0
    0.0734    6.0078   -8.7438 N   0  0  0  0  0  0
    3.5680    4.8194   -9.0286 O   0  0  0  0  0  0
    3.4566    1.9022   -9.9740 O   0  0  0  0  0  0
   -2.5988   -0.9790  -11.8613 O   0  0  0  0  0  0
   -3.5263   -4.8086   -6.5634 O   0  0  0  0  0  0
   -2.3725   -4.2417   -6.1243 C   0  0  0  0  0  0
   -1.3953   -4.8319   -5.7045 O   0  0  0  0  0  0
   -2.4609   -2.7558   -6.3378 C   0  0  0  0  0  0
   -2.8989   -2.0025   -5.0716 C   0  0  0  0  0  0
   -1.9286   -2.2052   -3.9008 C   0  0  0  0  0  0
   -2.4845   -3.1872   -2.8958 C   0  0  0  0  0  0
   -2.5712   -4.3929   -3.1020 O   0  0  0  0  0  0
   -2.8757   -2.6136   -1.7483 O   0  0  0  0  0  0
   -2.9504   -0.5185   -5.4602 C   0  0  0  0  0  0
   -3.9933    0.1110   -5.5523 O   0  0  0  0  0  0
   -1.7563    0.0217   -5.7400 O   0  0  0  0  0  0
   -4.6933   -8.0115   -8.1154 O   0  0  0  0  0  0
   -5.9346   -8.6253   -8.0899 C   0  0  0  0  0  0
   -6.1271   -9.8159   -8.2993 O   0  0  0  0  0  0
   -7.0660   -7.6411   -7.7652 C   0  0  0  0  0  0
   -7.0538   -6.3052   -8.5712 C   0  0  0  0  0  0
   -6.8671   -6.3829  -10.0975 C   0  0  0  0  0  0
   -6.3787   -5.0949  -10.6950 C   0  0  0  0  0  0
   -6.8904   -3.9952  -10.5357 O   0  0  0  0  0  0
   -5.2727   -5.2601  -11.4364 O   0  0  0  0  0  0
   -8.2567   -5.3907   -8.3081 C   0  0  0  0  0  0
   -9.3818   -5.8143   -8.1307 O   0  0  0  0  0  0
   -7.9695   -4.0785   -8.1782 O   0  0  0  0  0  0
   -0.3852    6.1782   -7.8498 H   0  0  0  0  0  0
   -0.2416    5.0776   -9.0284 H   0  0  0  0  0  0
    3.4835    4.4730   -8.1152 H   0  0  0  0  0  0
    3.1324    1.3639   -9.2286 H   0  0  0  0  0  0
   -2.4086   -0.0316  -11.9654 H   0  0  0  0  0  0
   -2.2463   -1.9712   -1.3680 H   0  0  0  0  0  0
   -1.0384   -0.6370   -5.9119 H   0  0  0  0  0  0
   -4.9915   -4.3663  -11.7251 H   0  0  0  0  0  0
   -8.7228   -3.5090   -7.9055 H   0  0  0  0  0  0
  1  2  1  0  0  0
  2  3  1  0  0  0
  3  4  1  0  0  0
  4  5  1  0  0  0
  5  6  1  0  0  0
  5  7  1  0  0  0
  7  8  1  0  0  0
  7 39  1  0  0  0
  8  9  1  0  0  0
  8 27  1  0  0  0
  9 10  1  0  0  0
 10 11  1  0  0  0
 10 12  1  0  0  0
 12 13  1  0  0  0
 13 14  1  0  0  0
 13 26  1  0  0  0
 14 15  1  0  0  0
 15 16  1  0  0  0
 16 17  1  0  0  0
 17 18  1  0  0  0
 18 19  1  0  0  0
 18 25  1  0  0  0
 19 20  1  0  0  0
 20 21  1  0  0  0
 20 24  1  0  0  0
 21 22  1  0  0  0
 21 23  1  0  0  0
 23 51  1  0  0  0
 23 52  1  0  0  0
 24 53  1  0  0  0
 25 54  1  0  0  0
 26 55  1  0  0  0
 27 28  1  0  0  0
 28 29  2  0  0  0
 28 30  1  0  0  0
 30 31  1  0  0  0
 31 32  1  0  0  0
 31 36  1  0  0  0
 32 33  1  0  0  0
 33 34  2  0  0  0
 33 35  1  0  0  0
 35 56  1  0  0  0
 36 37  2  0  0  0
 36 38  1  0  0  0
 38 57  1  0  0  0
 39 40  1  0  0  0
 40 41  2  0  0  0
 40 42  1  0  0  0
 42 43  1  0  0  0
 43 44  1  0  0  0
 43 48  1  0  0  0
 44 45  1  0  0  0
 45 46  2  0  0  0
 45 47  1  0  0  0
 47 58  1  0  0  0
 48 49  2  0  0  0
 48 50  1  0  0  0
 50 59  1  0  0  0
M  END
>  <AUTHOR>
    GENERATED BY OPEN BABEL 2.4.1

>  <CHROM.1>
-66.43235366,-93.97152413,165.01997017,-160.89912799,169.20227786,80.00119282
167.10332441,132.68353522,67.27892913,156.47701985,37.41474498,74.41817151
-179.07836632,159.65955029,-87.12378873,158.04648185,-82.57762221,-149.80106576
-63.49759532,176.99365523,179.91290356,-66.25887905,145.57299468,-50.24786229
97.02697357,60.22086661,-103.14243751,110.61989069,71.80365316,-46.05995740
16.42597276,-135.15887756,47.65375500,47.66363278,-159.07853793,-37.35049139
-52.70587480,-175.77478139,-173.10542358,-2.93009769,-3.06881825,-7.72107373
-2.63305840,-0.90785923,-1.17330416

>  <COMPND>
    UNNAMED

>  <MASTER>
        0    0    0    0    0    0    0    0  109    0  109    0

>  <Name>
FB1.pdb

>  <RI>
0

>  <Rbt.Current_Directory>
/cluster/tossine/FB1_39T3/p3/1_clust02

>  <Rbt.Executable>
rbdock/0.1.0

>  <Rbt.Library>
librxdock.so/0.1.0

>  <Rbt.Parameter_File>
/cluster/rxdock/data/scripts/dock.prm

>  <Rbt.Receptor>
rx_1.prm

>  <SCORE>
48.0695

>  <SCORE.INTER>
19.9672

>  <SCORE.INTER.CONST>
1

>  <SCORE.INTER.POLAR>
-1.15527

>  <SCORE.INTER.REPUL>
0.295307

>  <SCORE.INTER.ROT>
32

>  <SCORE.INTER.VDW>
-14.9814

>  <SCORE.INTER.norm>
0.399344

>  <SCORE.INTRA>
27.3154

>  <SCORE.INTRA.DIHEDRAL>
44.8796

>  <SCORE.INTRA.DIHEDRAL.0>
47.3121

>  <SCORE.INTRA.POLAR>
1.47808

>  <SCORE.INTRA.POLAR.0>
-1.47808

>  <SCORE.INTRA.REPUL>
0

>  <SCORE.INTRA.REPUL.0>
0

>  <SCORE.INTRA.VDW>
-0.14987

>  <SCORE.INTRA.VDW.0>
-2.78316

>  <SCORE.INTRA.norm>
0.546308

>  <SCORE.RESTR>
0.786877

>  <SCORE.RESTR.CAVITY>
0.786877

>  <SCORE.RESTR.norm>
0.0157375

>  <SCORE.SYSTEM>
0

>  <SCORE.SYSTEM.CONST>
0

>  <SCORE.SYSTEM.DIHEDRAL>
0

>  <SCORE.SYSTEM.norm>
0

>  <SCORE.heavy>
50

>  <SCORE.norm>
0.96139

$$$$
