FB1.pdb
  RxDock  10072009123D
librxdock.so/0.1.0
 59 58  0  0  0  0  0  0  0  0999 V2000
    2.1691    0.8788  -12.3944 C   0  0  0  0  0  0
    1.5896    0.2477  -11.1306 C   0  0  0  0  0  0
    1.6564    1.2088   -9.9322 C   0  0  0  0  0  0
    1.1259    0.5906   -8.6146 C   0  0  0  0  0  0
    1.2170    1.5281   -7.3603 C   0  0  0  0  0  0
    0.0393    2.5285   -7.4153 C   0  0  0  0  0  0
    1.2299    0.7422   -5.9819 C   0  0  0  0  0  0
    0.1873   -0.4637   -5.8243 C   0  0  0  0  0  0
   -0.7130   -0.7332   -4.5416 C   0  0  0  0  0  0
   -1.0787   -2.3177   -4.2641 C   0  0  0  0  0  0
   -0.5079   -2.7163   -2.9042 C   0  0  0  0  0  0
   -2.6251   -2.7042   -4.3293 C   0  0  0  0  0  0
   -3.5328   -3.0371   -3.0317 C   0  0  0  0  0  0
   -3.0118   -3.9195   -1.8459 C   0  0  0  0  0  0
   -4.0796   -4.7316   -0.9801 C   0  0  0  0  0  0
   -4.1325   -6.3072   -0.8844 C   0  0  0  0  0  0
   -3.3497   -7.0315    0.2425 C   0  0  0  0  0  0
   -4.0234   -7.0516    1.6690 C   0  0  0  0  0  0
   -4.0941   -8.4151    2.3678 C   0  0  0  0  0  0
   -5.1586   -8.6176    3.4832 C   0  0  0  0  0  0
   -6.3088   -9.6517    3.3011 C   0  0  0  0  0  0
   -7.5724   -9.4099    4.1148 C   0  0  0  0  0  0
   -6.6286   -9.8358    1.8727 N   0  0  0  0  0  0
   -4.4054   -9.0918    4.6285 O   0  0  0  0  0  0
   -3.3020   -6.1459    2.5110 O   0  0  0  0  0  0
   -3.8248   -1.7569   -2.4466 O   0  0  0  0  0  0
   -0.7678   -0.3197   -6.9104 O   0  0  0  0  0  0
   -1.6887   -1.3075   -7.0571 C   0  0  0  0  0  0
   -2.8969   -1.1686   -7.0698 O   0  0  0  0  0  0
   -0.9634   -2.6014   -7.3050 C   0  0  0  0  0  0
   -0.9569   -2.9993   -8.7897 C   0  0  0  0  0  0
   -0.3270   -1.9242   -9.6845 C   0  0  0  0  0  0
   -0.5757   -2.2170  -11.1459 C   0  0  0  0  0  0
   -1.5729   -1.8415  -11.7528 O   0  0  0  0  0  0
    0.4036   -2.9295  -11.7223 O   0  0  0  0  0  0
   -0.1418   -4.2972   -8.8749 C   0  0  0  0  0  0
    0.9231   -4.4551   -8.2976 O   0  0  0  0  0  0
   -0.6710   -5.2308   -9.6776 O   0  0  0  0  0  0
    2.6072    0.3363   -5.6099 O   0  0  0  0  0  0
    3.0107    0.5021   -4.2954 C   0  0  0  0  0  0
    2.2540    0.5378   -3.3339 O   0  0  0  0  0  0
    4.5335    0.6385   -4.1650 C   0  0  0  0  0  0
    5.0884    2.0963   -4.1993 C   0  0  0  0  0  0
    6.5871    2.2931   -4.4917 C   0  0  0  0  0  0
    7.2202    3.3449   -3.6271 C   0  0  0  0  0  0
    7.2199    3.3582   -2.4038 O   0  0  0  0  0  0
    7.8290    4.3011   -4.3450 O   0  0  0  0  0  0
    4.3182    3.0503   -5.1208 C   0  0  0  0  0  0
    3.2214    2.7885   -5.5740 O   0  0  0  0  0  0
    4.8909    4.2567   -5.3150 O   0  0  0  0  0  0
   -5.8482  -10.3030    1.4132 H   0  0  0  0  0  0
   -6.6833   -8.9162    1.4290 H   0  0  0  0  0  0
   -3.7138   -8.4109    4.7679 H   0  0  0  0  0  0
   -3.8840   -5.3908    2.7147 H   0  0  0  0  0  0
   -4.7107   -1.8027   -2.0496 H   0  0  0  0  0  0
    0.3804   -3.8894  -11.5444 H   0  0  0  0  0  0
   -1.3442   -4.8884  -10.3166 H   0  0  0  0  0  0
    7.9725    3.9313   -5.2416 H   0  0  0  0  0  0
    4.3278    4.9199   -5.7723 H   0  0  0  0  0  0
  1  2  1  0  0  0
  2  3  1  0  0  0
  3  4  1  0  0  0
  4  5  1  0  0  0
  5  6  1  0  0  0
  5  7  1  0  0  0
  7  8  1  0  0  0
  7 39  1  0  0  0
  8  9  1  0  0  0
  8 27  1  0  0  0
  9 10  1  0  0  0
 10 11  1  0  0  0
 10 12  1  0  0  0
 12 13  1  0  0  0
 13 14  1  0  0  0
 13 26  1  0  0  0
 14 15  1  0  0  0
 15 16  1  0  0  0
 16 17  1  0  0  0
 17 18  1  0  0  0
 18 19  1  0  0  0
 18 25  1  0  0  0
 19 20  1  0  0  0
 20 21  1  0  0  0
 20 24  1  0  0  0
 21 22  1  0  0  0
 21 23  1  0  0  0
 23 51  1  0  0  0
 23 52  1  0  0  0
 24 53  1  0  0  0
 25 54  1  0  0  0
 26 55  1  0  0  0
 27 28  1  0  0  0
 28 29  2  0  0  0
 28 30  1  0  0  0
 30 31  1  0  0  0
 31 32  1  0  0  0
 31 36  1  0  0  0
 32 33  1  0  0  0
 33 34  2  0  0  0
 33 35  1  0  0  0
 35 56  1  0  0  0
 36 37  2  0  0  0
 36 38  1  0  0  0
 38 57  1  0  0  0
 39 40  1  0  0  0
 40 41  2  0  0  0
 40 42  1  0  0  0
 42 43  1  0  0  0
 43 44  1  0  0  0
 43 48  1  0  0  0
 44 45  1  0  0  0
 45 46  2  0  0  0
 45 47  1  0  0  0
 47 58  1  0  0  0
 48 49  2  0  0  0
 48 50  1  0  0  0
 50 59  1  0  0  0
M  END
>  <AUTHOR>
    GENERATED BY OPEN BABEL 2.4.1

>  <CHROM.1>
-177.88755823,178.30466953,79.28497432,-43.81724647,-135.42589886,136.58125328
-149.76058035,174.20663512,118.97966640,-106.38542173,-42.24380734,-152.69120436
146.81359674,116.91571484,91.32430262,79.74036226,130.85650986,-158.11176134
111.94315092,115.80363520,-156.03223467,55.14772280,68.38395631,124.15192167
-101.06734104,57.65543853,-168.91431762,-45.03018037,87.77777405,79.46186759
17.82719633,24.98132412,92.02323205,-162.23716277,-138.46217767,14.28242271
56.14602709,-18.62651541,-169.73227329,-0.19595917,-2.00695117,-4.59464115
0.74697972,-0.76144681,-1.42799801

>  <COMPND>
    UNNAMED

>  <MASTER>
        0    0    0    0    0    0    0    0  109    0  109    0

>  <Name>
FB1.pdb

>  <RI>
0

>  <Rbt.Current_Directory>
/cluster/tossine/FB1_39T3/p3/1_clust02

>  <Rbt.Executable>
rbdock/0.1.0

>  <Rbt.Library>
librxdock.so/0.1.0

>  <Rbt.Parameter_File>
/cluster/rxdock/data/scripts/dock.prm

>  <Rbt.Receptor>
rx_3.prm

>  <SCORE>
145.027

>  <SCORE.INTER>
83.3907

>  <SCORE.INTER.CONST>
1

>  <SCORE.INTER.POLAR>
-1.81691

>  <SCORE.INTER.REPUL>
1.10279

>  <SCORE.INTER.ROT>
32

>  <SCORE.INTER.VDW>
46.6543

>  <SCORE.INTER.norm>
1.66781

>  <SCORE.INTRA>
53.1852

>  <SCORE.INTRA.DIHEDRAL>
89.6359

>  <SCORE.INTRA.DIHEDRAL.0>
47.3121

>  <SCORE.INTRA.POLAR>
1.47808

>  <SCORE.INTRA.POLAR.0>
-1.47808

>  <SCORE.INTRA.REPUL>
0

>  <SCORE.INTRA.REPUL.0>
0

>  <SCORE.INTRA.VDW>
3.34177

>  <SCORE.INTRA.VDW.0>
-2.78316

>  <SCORE.INTRA.norm>
1.0637

>  <SCORE.RESTR>
8.45157

>  <SCORE.RESTR.CAVITY>
8.45157

>  <SCORE.RESTR.norm>
0.169031

>  <SCORE.SYSTEM>
0

>  <SCORE.SYSTEM.CONST>
0

>  <SCORE.SYSTEM.DIHEDRAL>
0

>  <SCORE.SYSTEM.norm>
0

>  <SCORE.heavy>
50

>  <SCORE.norm>
2.90055

$$$$
