FB1.pdb
  RxDock  10072008083D
librxdock.so/0.1.0
 59 58  0  0  0  0  0  0  0  0999 V2000
   -3.5611    1.2799  -11.7638 C   0  0  0  0  0  0
   -3.5284   -0.2151  -12.0727 C   0  0  0  0  0  0
   -4.9392   -0.8265  -12.0774 C   0  0  0  0  0  0
   -5.2580   -1.6538  -10.8072 C   0  0  0  0  0  0
   -4.6021   -3.0780  -10.7634 C   0  0  0  0  0  0
   -4.4013   -3.5650  -12.2171 C   0  0  0  0  0  0
   -3.2364   -3.1216   -9.9566 C   0  0  0  0  0  0
   -2.9345   -1.8932   -8.9738 C   0  0  0  0  0  0
   -3.1211   -1.9173   -7.3949 C   0  0  0  0  0  0
   -1.7750   -2.3352   -6.5378 C   0  0  0  0  0  0
   -1.1409   -1.0623   -5.9794 C   0  0  0  0  0  0
   -1.9911   -3.3871   -5.3582 C   0  0  0  0  0  0
   -2.3518   -2.9803   -3.8341 C   0  0  0  0  0  0
   -2.4890   -4.0433   -2.6907 C   0  0  0  0  0  0
   -3.4435   -5.2996   -2.9353 C   0  0  0  0  0  0
   -2.9579   -6.8024   -2.9130 C   0  0  0  0  0  0
   -3.3228   -7.7414   -4.0931 C   0  0  0  0  0  0
   -4.4024   -8.8543   -3.8013 C   0  0  0  0  0  0
   -4.7821   -9.0634   -2.3301 C   0  0  0  0  0  0
   -3.7071   -9.6406   -1.3660 C   0  0  0  0  0  0
   -3.4850   -9.0097    0.0405 C   0  0  0  0  0  0
   -3.4228   -7.4898    0.0991 C   0  0  0  0  0  0
   -4.4623   -9.5354    1.0126 N   0  0  0  0  0  0
   -4.1404  -10.9997   -1.1036 O   0  0  0  0  0  0
   -5.5870   -8.5234   -4.5341 O   0  0  0  0  0  0
   -1.2793   -2.1181   -3.4180 O   0  0  0  0  0  0
   -1.5343   -1.5540   -9.1655 O   0  0  0  0  0  0
   -1.1092   -1.3888  -10.4451 C   0  0  0  0  0  0
   -1.5777   -1.9212  -11.4332 O   0  0  0  0  0  0
   -0.0194   -0.3526  -10.4545 C   0  0  0  0  0  0
    1.2077   -0.7790   -9.6330 C   0  0  0  0  0  0
    0.8841   -0.9657   -8.1451 C   0  0  0  0  0  0
    0.9336    0.3520   -7.4070 C   0  0  0  0  0  0
    0.0230    1.1730   -7.4232 O   0  0  0  0  0  0
    2.0737    0.5406   -6.7263 O   0  0  0  0  0  0
    1.6798   -2.1080  -10.2387 C   0  0  0  0  0  0
    0.9344   -2.8725  -10.8324 O   0  0  0  0  0  0
    2.9721   -2.3875  -10.0199 O   0  0  0  0  0  0
   -3.0552   -4.4295   -9.2809 O   0  0  0  0  0  0
   -4.1068   -5.3306   -9.2964 C   0  0  0  0  0  0
   -5.1133   -5.2381   -8.6061 O   0  0  0  0  0  0
   -3.8769   -6.4791  -10.2876 C   0  0  0  0  0  0
   -5.0826   -7.4480  -10.4932 C   0  0  0  0  0  0
   -5.2255   -8.1454  -11.8583 C   0  0  0  0  0  0
   -4.0309   -8.9809  -12.2181 C   0  0  0  0  0  0
   -3.2102   -9.4293  -11.4295 O   0  0  0  0  0  0
   -3.9492   -9.2188  -13.5360 O   0  0  0  0  0  0
   -5.2222   -8.5299   -9.4151 C   0  0  0  0  0  0
   -4.7592   -8.4122   -8.2977 O   0  0  0  0  0  0
   -5.9901   -9.5874   -9.7516 O   0  0  0  0  0  0
   -5.3990   -9.2463    0.7341 H   0  0  0  0  0  0
   -4.3033   -9.0802    1.9143 H   0  0  0  0  0  0
   -3.5084  -11.3350   -0.4331 H   0  0  0  0  0  0
   -5.3695   -8.5333   -5.4845 H   0  0  0  0  0  0
   -0.5378   -2.6773   -3.1318 H   0  0  0  0  0  0
    2.0145    1.1676   -5.9801 H   0  0  0  0  0  0
    3.3865   -1.8653   -9.2890 H   0  0  0  0  0  0
   -3.1165   -9.7157  -13.6811 H   0  0  0  0  0  0
   -5.7311  -10.4418   -9.3405 H   0  0  0  0  0  0
  1  2  1  0  0  0
  2  3  1  0  0  0
  3  4  1  0  0  0
  4  5  1  0  0  0
  5  6  1  0  0  0
  5  7  1  0  0  0
  7  8  1  0  0  0
  7 39  1  0  0  0
  8  9  1  0  0  0
  8 27  1  0  0  0
  9 10  1  0  0  0
 10 11  1  0  0  0
 10 12  1  0  0  0
 12 13  1  0  0  0
 13 14  1  0  0  0
 13 26  1  0  0  0
 14 15  1  0  0  0
 15 16  1  0  0  0
 16 17  1  0  0  0
 17 18  1  0  0  0
 18 19  1  0  0  0
 18 25  1  0  0  0
 19 20  1  0  0  0
 20 21  1  0  0  0
 20 24  1  0  0  0
 21 22  1  0  0  0
 21 23  1  0  0  0
 23 51  1  0  0  0
 23 52  1  0  0  0
 24 53  1  0  0  0
 25 54  1  0  0  0
 26 55  1  0  0  0
 27 28  1  0  0  0
 28 29  2  0  0  0
 28 30  1  0  0  0
 30 31  1  0  0  0
 31 32  1  0  0  0
 31 36  1  0  0  0
 32 33  1  0  0  0
 33 34  2  0  0  0
 33 35  1  0  0  0
 35 56  1  0  0  0
 36 37  2  0  0  0
 36 38  1  0  0  0
 38 57  1  0  0  0
 39 40  1  0  0  0
 40 41  2  0  0  0
 40 42  1  0  0  0
 42 43  1  0  0  0
 43 44  1  0  0  0
 43 48  1  0  0  0
 44 45  1  0  0  0
 45 46  2  0  0  0
 45 47  1  0  0  0
 47 58  1  0  0  0
 48 49  2  0  0  0
 48 50  1  0  0  0
 50 59  1  0  0  0
M  END
>  <AUTHOR>
    GENERATED BY OPEN BABEL 2.4.1

>  <CHROM.1>
-103.92258012,-76.72942507,-27.74259635,17.14027812,101.35779576,-7.54866692
92.64848779,49.75730714,101.21411016,-89.73505063,-177.03444506,-51.45422362
-82.69344682,119.81552006,-129.34018580,-108.19050743,-11.10389339,-67.14557128
62.16144293,134.84953602,-45.07697251,-175.00612906,-64.52001261,-27.93568715
62.16673738,-62.76412659,-83.79458533,-26.11776168,79.83816056,-156.58963102
17.44968396,-75.51799178,-173.07675026,150.76640023,58.78323121,23.23954253
21.49681699,176.41092832,148.97960508,-2.73825746,-4.58303069,-7.61745559
-1.03375001,1.03940346,1.86597300

>  <COMPND>
    UNNAMED

>  <MASTER>
        0    0    0    0    0    0    0    0  109    0  109    0

>  <Name>
FB1.pdb

>  <RI>
0

>  <Rbt.Current_Directory>
/cluster/tossine/FB1_39T3/p3/1_clust02

>  <Rbt.Executable>
rbdock/0.1.0

>  <Rbt.Library>
librxdock.so/0.1.0

>  <Rbt.Parameter_File>
/cluster/rxdock/data/scripts/dock.prm

>  <Rbt.Receptor>
rx_1.prm

>  <SCORE>
155.699

>  <SCORE.INTER>
97.4014

>  <SCORE.INTER.CONST>
1

>  <SCORE.INTER.POLAR>
-1.44011

>  <SCORE.INTER.REPUL>
1.92185

>  <SCORE.INTER.ROT>
32

>  <SCORE.INTER.VDW>
55.2885

>  <SCORE.INTER.norm>
1.94803

>  <SCORE.INTRA>
57.3029

>  <SCORE.INTRA.DIHEDRAL>
77.8686

>  <SCORE.INTRA.DIHEDRAL.0>
47.3121

>  <SCORE.INTRA.POLAR>
1.47808

>  <SCORE.INTRA.POLAR.0>
-1.47808

>  <SCORE.INTRA.REPUL>
0

>  <SCORE.INTRA.REPUL.0>
0

>  <SCORE.INTRA.VDW>
13.3431

>  <SCORE.INTRA.VDW.0>
-2.78316

>  <SCORE.INTRA.norm>
1.14606

>  <SCORE.RESTR>
0.994696

>  <SCORE.RESTR.CAVITY>
0.994696

>  <SCORE.RESTR.norm>
0.0198939

>  <SCORE.SYSTEM>
0

>  <SCORE.SYSTEM.CONST>
0

>  <SCORE.SYSTEM.DIHEDRAL>
0

>  <SCORE.SYSTEM.norm>
0

>  <SCORE.heavy>
50

>  <SCORE.norm>
3.11398

$$$$
