FB1.pdb
  RxDock  10072009473D
librxdock.so/0.1.0
 59 58  0  0  0  0  0  0  0  0999 V2000
    2.5546   -1.3591   -6.3515 C   0  0  0  0  0  0
    1.9822   -1.2272   -7.7608 C   0  0  0  0  0  0
    1.9783   -2.5743   -8.5022 C   0  0  0  0  0  0
    1.4642   -2.4753   -9.9601 C   0  0  0  0  0  0
    0.0672   -1.7809  -10.1233 C   0  0  0  0  0  0
   -0.3173   -1.8097  -11.6206 C   0  0  0  0  0  0
   -1.0721   -2.4333   -9.2322 C   0  0  0  0  0  0
   -2.5164   -1.7420   -9.2805 C   0  0  0  0  0  0
   -3.8109   -2.3732   -9.9545 C   0  0  0  0  0  0
   -3.7353   -2.5395  -11.5940 C   0  0  0  0  0  0
   -5.0925   -3.0307  -12.0948 C   0  0  0  0  0  0
   -3.3006   -1.2415  -12.4131 C   0  0  0  0  0  0
   -3.9848    0.2144  -12.2367 C   0  0  0  0  0  0
   -3.1453    1.5103  -11.9685 C   0  0  0  0  0  0
   -3.9181    2.9024  -11.8502 C   0  0  0  0  0  0
   -4.0083    3.9701  -13.0106 C   0  0  0  0  0  0
   -2.8533    4.9877  -13.2047 C   0  0  0  0  0  0
   -2.5835    5.9848  -12.0121 C   0  0  0  0  0  0
   -1.2732    6.7796  -12.0742 C   0  0  0  0  0  0
   -0.6356    7.2556  -10.7381 C   0  0  0  0  0  0
   -0.4444    6.2619   -9.5542 C   0  0  0  0  0  0
    0.5406    5.1229   -9.7780 C   0  0  0  0  0  0
   -0.1393    6.9851   -8.3051 N   0  0  0  0  0  0
    0.7061    7.6722  -11.0989 O   0  0  0  0  0  0
   -3.6745    6.9102  -11.9547 O   0  0  0  0  0  0
   -4.6628    0.4573  -13.4808 O   0  0  0  0  0  0
   -2.9048   -1.5151   -7.8984 O   0  0  0  0  0  0
   -2.0101   -0.8720   -7.1039 C   0  0  0  0  0  0
   -1.0947   -0.1637   -7.4780 O   0  0  0  0  0  0
   -2.3994   -1.0977   -5.6690 C   0  0  0  0  0  0
   -1.1820   -1.2019   -4.7365 C   0  0  0  0  0  0
   -0.2328   -2.3401   -5.1327 C   0  0  0  0  0  0
   -0.9315   -3.6786   -5.0722 C   0  0  0  0  0  0
   -0.7275   -4.5869   -5.8704 O   0  0  0  0  0  0
   -1.8007   -3.7822   -4.0560 O   0  0  0  0  0  0
   -0.4561    0.1467   -4.8380 C   0  0  0  0  0  0
   -0.9819    1.1551   -5.2841 O   0  0  0  0  0  0
    0.8236    0.1172   -4.4413 O   0  0  0  0  0  0
   -1.1510   -3.8980   -9.4519 O   0  0  0  0  0  0
   -2.1963   -4.5963   -8.8707 C   0  0  0  0  0  0
   -2.5241   -4.5079   -7.6946 O   0  0  0  0  0  0
   -2.9162   -5.5097   -9.8716 C   0  0  0  0  0  0
   -4.0793   -6.3705   -9.2878 C   0  0  0  0  0  0
   -5.0562   -5.6966   -8.3071 C   0  0  0  0  0  0
   -6.3216   -5.2301   -8.9672 C   0  0  0  0  0  0
   -6.3911   -4.6167  -10.0233 O   0  0  0  0  0  0
   -7.4185   -5.5763   -8.2764 O   0  0  0  0  0  0
   -4.9245   -7.0982  -10.3406 C   0  0  0  0  0  0
   -4.9103   -6.8016  -11.5190 O   0  0  0  0  0  0
   -5.6125   -8.1691   -9.8921 O   0  0  0  0  0  0
    0.7986    7.3788   -8.3676 H   0  0  0  0  0  0
   -0.0907    6.3089   -7.5397 H   0  0  0  0  0  0
    0.8101    8.5547  -10.6845 H   0  0  0  0  0  0
   -4.4565    6.4378  -11.6144 H   0  0  0  0  0  0
   -3.9899    0.6099  -14.1652 H   0  0  0  0  0  0
   -1.4075   -3.7249   -3.1641 H   0  0  0  0  0  0
    0.9657   -0.2729   -3.5433 H   0  0  0  0  0  0
   -8.1782   -5.1423   -8.7189 H   0  0  0  0  0  0
   -6.0231   -8.7265  -10.5900 H   0  0  0  0  0  0
  1  2  1  0  0  0
  2  3  1  0  0  0
  3  4  1  0  0  0
  4  5  1  0  0  0
  5  6  1  0  0  0
  5  7  1  0  0  0
  7  8  1  0  0  0
  7 39  1  0  0  0
  8  9  1  0  0  0
  8 27  1  0  0  0
  9 10  1  0  0  0
 10 11  1  0  0  0
 10 12  1  0  0  0
 12 13  1  0  0  0
 13 14  1  0  0  0
 13 26  1  0  0  0
 14 15  1  0  0  0
 15 16  1  0  0  0
 16 17  1  0  0  0
 17 18  1  0  0  0
 18 19  1  0  0  0
 18 25  1  0  0  0
 19 20  1  0  0  0
 20 21  1  0  0  0
 20 24  1  0  0  0
 21 22  1  0  0  0
 21 23  1  0  0  0
 23 51  1  0  0  0
 23 52  1  0  0  0
 24 53  1  0  0  0
 25 54  1  0  0  0
 26 55  1  0  0  0
 27 28  1  0  0  0
 28 29  2  0  0  0
 28 30  1  0  0  0
 30 31  1  0  0  0
 31 32  1  0  0  0
 31 36  1  0  0  0
 32 33  1  0  0  0
 33 34  2  0  0  0
 33 35  1  0  0  0
 35 56  1  0  0  0
 36 37  2  0  0  0
 36 38  1  0  0  0
 38 57  1  0  0  0
 39 40  1  0  0  0
 40 41  2  0  0  0
 40 42  1  0  0  0
 42 43  1  0  0  0
 43 44  1  0  0  0
 43 48  1  0  0  0
 44 45  1  0  0  0
 45 46  2  0  0  0
 45 47  1  0  0  0
 47 58  1  0  0  0
 48 49  2  0  0  0
 48 50  1  0  0  0
 50 59  1  0  0  0
M  END
>  <AUTHOR>
    GENERATED BY OPEN BABEL 2.4.1

>  <CHROM.1>
-177.40546025,-52.72728490,-178.01953702,177.06534255,109.96839049,-172.47335356
-66.20438388,51.36566023,-174.71959916,-51.20250882,128.00048212,178.34023585
-70.42953588,-100.75331161,-84.01760835,-62.59205093,167.47169446,-152.94303302
72.23566582,49.00579595,65.80095571,131.33748431,-70.35094860,20.88193392
145.61502091,-58.72850556,-60.79042249,17.45727328,143.06470499,-63.38552360
-52.06820557,-49.45453230,178.04455869,42.92052380,97.69275904,-16.50221940
-45.69765427,173.36153746,-169.58302477,-2.19725574,-0.85046859,-9.19500275
-1.90513099,-0.84496152,-0.45309439

>  <COMPND>
    UNNAMED

>  <MASTER>
        0    0    0    0    0    0    0    0  109    0  109    0

>  <Name>
FB1.pdb

>  <RI>
0

>  <Rbt.Current_Directory>
/cluster/tossine/FB1_39T3/p3/1_clust02

>  <Rbt.Executable>
rbdock/0.1.0

>  <Rbt.Library>
librxdock.so/0.1.0

>  <Rbt.Parameter_File>
/cluster/rxdock/data/scripts/dock.prm

>  <Rbt.Receptor>
rx_4.prm

>  <SCORE>
77.3512

>  <SCORE.INTER>
45.1942

>  <SCORE.INTER.CONST>
1

>  <SCORE.INTER.POLAR>
-3.36732

>  <SCORE.INTER.REPUL>
1.9288

>  <SCORE.INTER.ROT>
32

>  <SCORE.INTER.VDW>
9.5991

>  <SCORE.INTER.norm>
0.903884

>  <SCORE.INTRA>
27.0933

>  <SCORE.INTRA.DIHEDRAL>
48.5178

>  <SCORE.INTRA.DIHEDRAL.0>
47.3121

>  <SCORE.INTRA.POLAR>
1.47808

>  <SCORE.INTRA.POLAR.0>
-1.47808

>  <SCORE.INTRA.REPUL>
0

>  <SCORE.INTRA.REPUL.0>
0

>  <SCORE.INTRA.VDW>
-2.19108

>  <SCORE.INTRA.VDW.0>
-2.78316

>  <SCORE.INTRA.norm>
0.541866

>  <SCORE.RESTR>
5.06376

>  <SCORE.RESTR.CAVITY>
5.06376

>  <SCORE.RESTR.norm>
0.101275

>  <SCORE.SYSTEM>
0

>  <SCORE.SYSTEM.CONST>
0

>  <SCORE.SYSTEM.DIHEDRAL>
0

>  <SCORE.SYSTEM.norm>
0

>  <SCORE.heavy>
50

>  <SCORE.norm>
1.54702

$$$$
