FB1.pdb
  RxDock  10072008373D
librxdock.so/0.1.0
 59 58  0  0  0  0  0  0  0  0999 V2000
   -2.8659   -6.0577   -6.3241 C   0  0  0  0  0  0
   -2.3967   -4.6061   -6.3879 C   0  0  0  0  0  0
   -1.0344   -4.4784   -7.0894 C   0  0  0  0  0  0
   -1.1384   -4.4161   -8.6338 C   0  0  0  0  0  0
   -1.2660   -2.9711   -9.2305 C   0  0  0  0  0  0
   -2.4475   -2.2597   -8.5315 C   0  0  0  0  0  0
    0.0647   -2.1154   -9.1073 C   0  0  0  0  0  0
    0.2153   -0.8620  -10.0934 C   0  0  0  0  0  0
    1.5919   -0.3051  -10.6618 C   0  0  0  0  0  0
    2.0921    1.1240  -10.0069 C   0  0  0  0  0  0
    2.6342    2.0082  -11.1287 C   0  0  0  0  0  0
    1.0027    1.9324   -9.1677 C   0  0  0  0  0  0
    1.3418    3.2069   -8.2300 C   0  0  0  0  0  0
    1.9032    4.5505   -8.8094 C   0  0  0  0  0  0
    3.4829    4.6956   -8.9907 C   0  0  0  0  0  0
    4.2838    6.0378   -8.7639 C   0  0  0  0  0  0
    4.3687    6.6462   -7.3391 C   0  0  0  0  0  0
    5.6144    7.5663   -7.0379 C   0  0  0  0  0  0
    5.6494    8.2316   -5.6563 C   0  0  0  0  0  0
    4.5686    9.2993   -5.3245 C   0  0  0  0  0  0
    4.8095   10.3449   -4.1958 C   0  0  0  0  0  0
    4.8496    9.8079   -2.7720 C   0  0  0  0  0  0
    6.0020   11.1642   -4.4842 N   0  0  0  0  0  0
    4.4391   10.0811   -6.5393 O   0  0  0  0  0  0
    6.7966    6.7732   -7.1908 O   0  0  0  0  0  0
    0.0901    3.5572   -7.6158 O   0  0  0  0  0  0
   -0.5605   -1.1828  -11.2799 O   0  0  0  0  0  0
   -1.8595   -0.7859  -11.2935 C   0  0  0  0  0  0
   -2.3178    0.1954  -10.7399 O   0  0  0  0  0  0
   -2.6299   -1.7093  -12.1965 C   0  0  0  0  0  0
   -4.1225   -1.7780  -11.8360 C   0  0  0  0  0  0
   -4.9472   -0.6885  -12.5333 C   0  0  0  0  0  0
   -6.2012   -0.3704  -11.7525 C   0  0  0  0  0  0
   -6.6228    0.7682  -11.5808 O   0  0  0  0  0  0
   -6.8156   -1.4573  -11.2625 O   0  0  0  0  0  0
   -4.6010   -3.1661  -12.2834 C   0  0  0  0  0  0
   -5.2780   -3.8978  -11.5772 O   0  0  0  0  0  0
   -4.1728   -3.5335  -13.4989 O   0  0  0  0  0  0
    0.3354   -1.7465   -7.6965 O   0  0  0  0  0  0
    1.6235   -1.3765   -7.3475 C   0  0  0  0  0  0
    2.6266   -1.6548   -7.9916 O   0  0  0  0  0  0
    1.6656   -0.5654   -6.0457 C   0  0  0  0  0  0
    0.3460    0.1757   -5.6664 C   0  0  0  0  0  0
   -0.5570   -0.4586   -4.5928 C   0  0  0  0  0  0
   -1.2399   -1.7096   -5.0651 C   0  0  0  0  0  0
   -2.3288   -1.7620   -5.6201 O   0  0  0  0  0  0
   -0.5110   -2.8116   -4.8316 O   0  0  0  0  0  0
    0.5289    1.6513   -5.2903 C   0  0  0  0  0  0
   -0.4035    2.3897   -5.0412 O   0  0  0  0  0  0
    1.8076    2.0585   -5.1470 O   0  0  0  0  0  0
    5.9215   11.5524   -5.4230 H   0  0  0  0  0  0
    6.8187   10.5502   -4.5222 H   0  0  0  0  0  0
    3.6764   10.6738   -6.3711 H   0  0  0  0  0  0
    6.9609    6.6530   -8.1442 H   0  0  0  0  0  0
   -0.3089    2.7448   -7.2618 H   0  0  0  0  0  0
   -7.6218   -1.2804  -10.7407 H   0  0  0  0  0  0
   -3.9771   -2.7803  -14.1097 H   0  0  0  0  0  0
   -0.0393   -2.6628   -3.9850 H   0  0  0  0  0  0
    1.9246    3.0164   -4.9604 H   0  0  0  0  0  0
  1  2  1  0  0  0
  2  3  1  0  0  0
  3  4  1  0  0  0
  4  5  1  0  0  0
  5  6  1  0  0  0
  5  7  1  0  0  0
  7  8  1  0  0  0
  7 39  1  0  0  0
  8  9  1  0  0  0
  8 27  1  0  0  0
  9 10  1  0  0  0
 10 11  1  0  0  0
 10 12  1  0  0  0
 12 13  1  0  0  0
 13 14  1  0  0  0
 13 26  1  0  0  0
 14 15  1  0  0  0
 15 16  1  0  0  0
 16 17  1  0  0  0
 17 18  1  0  0  0
 18 19  1  0  0  0
 18 25  1  0  0  0
 19 20  1  0  0  0
 20 21  1  0  0  0
 20 24  1  0  0  0
 21 22  1  0  0  0
 21 23  1  0  0  0
 23 51  1  0  0  0
 23 52  1  0  0  0
 24 53  1  0  0  0
 25 54  1  0  0  0
 26 55  1  0  0  0
 27 28  1  0  0  0
 28 29  2  0  0  0
 28 30  1  0  0  0
 30 31  1  0  0  0
 31 32  1  0  0  0
 31 36  1  0  0  0
 32 33  1  0  0  0
 33 34  2  0  0  0
 33 35  1  0  0  0
 35 56  1  0  0  0
 36 37  2  0  0  0
 36 38  1  0  0  0
 38 57  1  0  0  0
 39 40  1  0  0  0
 40 41  2  0  0  0
 40 42  1  0  0  0
 42 43  1  0  0  0
 43 44  1  0  0  0
 43 48  1  0  0  0
 44 45  1  0  0  0
 45 46  2  0  0  0
 45 47  1  0  0  0
 47 58  1  0  0  0
 48 49  2  0  0  0
 48 50  1  0  0  0
 50 59  1  0  0  0
M  END
>  <AUTHOR>
    GENERATED BY OPEN BABEL 2.4.1

>  <CHROM.1>
84.04586482,90.68044744,-53.39822639,159.68266923,-149.22372043,160.21814134
-107.11610014,91.20291607,-137.95459704,168.66872179,64.08984310,-86.82397096
48.16338764,-144.20272312,66.07277748,154.59903864,176.47128605,-66.27104649
75.79238368,-158.72630720,-68.14277876,172.66004988,52.22343462,30.78840572
154.67771325,87.63659803,-154.78957083,133.10369676,138.41340262,179.05670973
-26.58166019,-20.34485855,-23.55444475,101.15471554,-70.51397569,175.84516888
-89.65067490,34.81852836,176.40061719,0.16348937,1.14137220,-8.21539133,-2.73366618
-0.89039991,-0.69081524

>  <COMPND>
    UNNAMED

>  <MASTER>
        0    0    0    0    0    0    0    0  109    0  109    0

>  <Name>
FB1.pdb

>  <RI>
0

>  <Rbt.Current_Directory>
/cluster/tossine/FB1_39T3/p3/1_clust02

>  <Rbt.Executable>
rbdock/0.1.0

>  <Rbt.Library>
librxdock.so/0.1.0

>  <Rbt.Parameter_File>
/cluster/rxdock/data/scripts/dock.prm

>  <Rbt.Receptor>
rx_2.prm

>  <SCORE>
14.9204

>  <SCORE.INTER>
-4.80981

>  <SCORE.INTER.CONST>
1

>  <SCORE.INTER.POLAR>
-1.58507

>  <SCORE.INTER.REPUL>
0.65736

>  <SCORE.INTER.ROT>
32

>  <SCORE.INTER.VDW>
-40.1074

>  <SCORE.INTER.norm>
-0.0961962

>  <SCORE.INTRA>
19.3188

>  <SCORE.INTRA.DIHEDRAL>
33.9193

>  <SCORE.INTRA.DIHEDRAL.0>
47.3121

>  <SCORE.INTRA.POLAR>
1.47417

>  <SCORE.INTRA.POLAR.0>
-1.47808

>  <SCORE.INTRA.REPUL>
0

>  <SCORE.INTRA.REPUL.0>
0

>  <SCORE.INTRA.VDW>
-2.65304

>  <SCORE.INTRA.VDW.0>
-2.78316

>  <SCORE.INTRA.norm>
0.386375

>  <SCORE.RESTR>
0.411439

>  <SCORE.RESTR.CAVITY>
0.411439

>  <SCORE.RESTR.norm>
0.00822877

>  <SCORE.SYSTEM>
0

>  <SCORE.SYSTEM.CONST>
0

>  <SCORE.SYSTEM.DIHEDRAL>
0

>  <SCORE.SYSTEM.norm>
0

>  <SCORE.heavy>
50

>  <SCORE.norm>
0.298408

$$$$
