FB1.pdb
  RxDock  10072008413D
librxdock.so/0.1.0
 59 58  0  0  0  0  0  0  0  0999 V2000
   -3.4601   -3.1469   -1.6320 C   0  0  0  0  0  0
   -4.2944   -2.5119   -2.7419 C   0  0  0  0  0  0
   -3.5301   -2.4695   -4.0754 C   0  0  0  0  0  0
   -2.3000   -1.5281   -4.0525 C   0  0  0  0  0  0
   -1.6309   -1.2797   -5.4493 C   0  0  0  0  0  0
   -0.8101    0.0281   -5.3688 C   0  0  0  0  0  0
   -0.7274   -2.4873   -5.9424 C   0  0  0  0  0  0
   -1.4777   -3.7137   -6.6489 C   0  0  0  0  0  0
   -2.3495   -4.8095   -5.8956 C   0  0  0  0  0  0
   -2.8557   -6.0675   -6.8351 C   0  0  0  0  0  0
   -3.0705   -7.2862   -5.9391 C   0  0  0  0  0  0
   -4.1645   -5.8095   -7.7100 C   0  0  0  0  0  0
   -5.0117   -6.9778   -8.4420 C   0  0  0  0  0  0
   -5.0010   -8.4628   -7.9415 C   0  0  0  0  0  0
   -6.0530   -8.8916   -6.8196 C   0  0  0  0  0  0
   -5.8595   -8.6310   -5.2739 C   0  0  0  0  0  0
   -6.7018   -9.4384   -4.2511 C   0  0  0  0  0  0
   -5.9095  -10.4185   -3.3020 C   0  0  0  0  0  0
   -6.6942  -11.0022   -2.1204 C   0  0  0  0  0  0
   -5.9723  -12.0104   -1.1820 C   0  0  0  0  0  0
   -4.5378  -11.7125   -0.6540 C   0  0  0  0  0  0
   -4.4046  -10.5604    0.3322 C   0  0  0  0  0  0
   -3.9085  -12.9366   -0.1230 N   0  0  0  0  0  0
   -6.8045  -12.0690    0.0045 O   0  0  0  0  0  0
   -5.4146  -11.5005   -4.0982 O   0  0  0  0  0  0
   -6.3830   -6.5579   -8.3418 O   0  0  0  0  0  0
   -2.3920   -3.1285   -7.6153 O   0  0  0  0  0  0
   -1.8816   -2.1965   -8.4616 C   0  0  0  0  0  0
   -1.2511   -1.2058   -8.1450 O   0  0  0  0  0  0
   -2.1376   -2.6451   -9.8739 C   0  0  0  0  0  0
   -3.5784   -3.1368  -10.0852 C   0  0  0  0  0  0
   -4.2239   -2.5444  -11.3444 C   0  0  0  0  0  0
   -4.9609   -1.2637  -11.0282 C   0  0  0  0  0  0
   -6.1819   -1.1566  -11.0666 O   0  0  0  0  0  0
   -4.1498   -0.2480  -10.6975 O   0  0  0  0  0  0
   -3.4890   -4.6640  -10.2096 C   0  0  0  0  0  0
   -4.3491   -5.3404  -10.7528 O   0  0  0  0  0  0
   -2.4092   -5.2040   -9.6278 O   0  0  0  0  0  0
    0.4214   -2.0032   -6.7460 O   0  0  0  0  0  0
    1.4655   -1.3726   -6.0899 C   0  0  0  0  0  0
    1.6096   -1.3462   -4.8746 O   0  0  0  0  0  0
    2.4427   -0.6976   -7.0614 C   0  0  0  0  0  0
    1.9005   -0.4476   -8.5029 C   0  0  0  0  0  0
    2.0722    0.9583   -9.1066 C   0  0  0  0  0  0
    1.0206    1.2918  -10.1251 C   0  0  0  0  0  0
    0.9683    2.3196  -10.7865 O   0  0  0  0  0  0
    0.1138    0.3129  -10.2658 O   0  0  0  0  0  0
    2.3902   -1.4537   -9.5518 C   0  0  0  0  0  0
    3.4656   -2.0147   -9.4771 O   0  0  0  0  0  0
    1.5003   -1.7626  -10.5183 O   0  0  0  0  0  0
   -4.0867  -13.7087   -0.7637 H   0  0  0  0  0  0
   -4.3834  -13.1985    0.7438 H   0  0  0  0  0  0
   -7.0185  -13.0201    0.1090 H   0  0  0  0  0  0
   -4.6968  -11.9380   -3.6044 H   0  0  0  0  0  0
   -6.9174   -7.1382   -8.9094 H   0  0  0  0  0  0
   -3.1947   -0.4346  -10.7777 H   0  0  0  0  0  0
   -2.3845   -6.1929   -9.6469 H   0  0  0  0  0  0
   -0.5215    0.6140  -10.9493 H   0  0  0  0  0  0
    0.6439   -1.2826  -10.4691 H   0  0  0  0  0  0
  1  2  1  0  0  0
  2  3  1  0  0  0
  3  4  1  0  0  0
  4  5  1  0  0  0
  5  6  1  0  0  0
  5  7  1  0  0  0
  7  8  1  0  0  0
  7 39  1  0  0  0
  8  9  1  0  0  0
  8 27  1  0  0  0
  9 10  1  0  0  0
 10 11  1  0  0  0
 10 12  1  0  0  0
 12 13  1  0  0  0
 13 14  1  0  0  0
 13 26  1  0  0  0
 14 15  1  0  0  0
 15 16  1  0  0  0
 16 17  1  0  0  0
 17 18  1  0  0  0
 18 19  1  0  0  0
 18 25  1  0  0  0
 19 20  1  0  0  0
 20 21  1  0  0  0
 20 24  1  0  0  0
 21 22  1  0  0  0
 21 23  1  0  0  0
 23 51  1  0  0  0
 23 52  1  0  0  0
 24 53  1  0  0  0
 25 54  1  0  0  0
 26 55  1  0  0  0
 27 28  1  0  0  0
 28 29  2  0  0  0
 28 30  1  0  0  0
 30 31  1  0  0  0
 31 32  1  0  0  0
 31 36  1  0  0  0
 32 33  1  0  0  0
 33 34  2  0  0  0
 33 35  1  0  0  0
 35 56  1  0  0  0
 36 37  2  0  0  0
 36 38  1  0  0  0
 38 57  1  0  0  0
 39 40  1  0  0  0
 40 41  2  0  0  0
 40 42  1  0  0  0
 42 43  1  0  0  0
 43 44  1  0  0  0
 43 48  1  0  0  0
 44 45  1  0  0  0
 45 46  2  0  0  0
 45 47  1  0  0  0
 47 58  1  0  0  0
 48 49  2  0  0  0
 48 50  1  0  0  0
 50 59  1  0  0  0
M  END
>  <AUTHOR>
    GENERATED BY OPEN BABEL 2.4.1

>  <CHROM.1>
-66.51215944,-170.67467215,159.03799107,82.33312639,-74.43455456,73.25821965
-172.72608795,49.68796612,153.71918576,-166.17894593,24.74412693,87.43401849
169.51834107,-81.31846848,-161.79695857,114.87599952,168.38552529,178.01268433
161.48680158,46.31335442,68.29401193,124.34330377,43.90615826,-52.25597049
46.06837275,132.86310106,-91.25842443,-158.25303925,-111.03081554,5.16250317
175.57387361,10.87087273,18.11063478,130.55146461,-152.70340429,-29.55306686
-176.76834358,-179.55880533,2.35457436,-2.63516381,-4.45066988,-6.73422708
-2.17462910,-0.74578926,-1.02547657

>  <COMPND>
    UNNAMED

>  <MASTER>
        0    0    0    0    0    0    0    0  109    0  109    0

>  <Name>
FB1.pdb

>  <RI>
0

>  <Rbt.Current_Directory>
/cluster/tossine/FB1_39T3/p3/1_clust02

>  <Rbt.Executable>
rbdock/0.1.0

>  <Rbt.Library>
librxdock.so/0.1.0

>  <Rbt.Parameter_File>
/cluster/rxdock/data/scripts/dock.prm

>  <Rbt.Receptor>
rx_2.prm

>  <SCORE>
36.4561

>  <SCORE.INTER>
7.93829

>  <SCORE.INTER.CONST>
1

>  <SCORE.INTER.POLAR>
-1.77755

>  <SCORE.INTER.REPUL>
1.1943

>  <SCORE.INTER.ROT>
32

>  <SCORE.INTER.VDW>
-29.3896

>  <SCORE.INTER.norm>
0.158766

>  <SCORE.INTRA>
28.4185

>  <SCORE.INTRA.DIHEDRAL>
32.3857

>  <SCORE.INTRA.DIHEDRAL.0>
47.3121

>  <SCORE.INTRA.POLAR>
0.725591

>  <SCORE.INTRA.POLAR.0>
-1.47808

>  <SCORE.INTRA.REPUL>
0.106731

>  <SCORE.INTRA.REPUL.0>
0

>  <SCORE.INTRA.VDW>
9.22498

>  <SCORE.INTRA.VDW.0>
-2.78316

>  <SCORE.INTRA.norm>
0.56837

>  <SCORE.RESTR>
0.0993048

>  <SCORE.RESTR.CAVITY>
0.0993048

>  <SCORE.RESTR.norm>
0.0019861

>  <SCORE.SYSTEM>
0

>  <SCORE.SYSTEM.CONST>
0

>  <SCORE.SYSTEM.DIHEDRAL>
0

>  <SCORE.SYSTEM.norm>
0

>  <SCORE.heavy>
50

>  <SCORE.norm>
0.729121

$$$$
