FB1.pdb
  RxDock  10072008343D
librxdock.so/0.1.0
 59 58  0  0  0  0  0  0  0  0999 V2000
    1.0007    7.6069   -8.4606 C   0  0  0  0  0  0
    0.1904    6.3155   -8.5446 C   0  0  0  0  0  0
    1.0936    5.0722   -8.4920 C   0  0  0  0  0  0
    0.3144    3.7378   -8.6013 C   0  0  0  0  0  0
    1.1959    2.4817   -8.9266 C   0  0  0  0  0  0
    1.6284    1.8331   -7.5913 C   0  0  0  0  0  0
    0.4713    1.4248   -9.8624 C   0  0  0  0  0  0
   -0.3332    0.2446   -9.1371 C   0  0  0  0  0  0
   -1.4675   -0.6403   -9.8143 C   0  0  0  0  0  0
   -1.0499   -1.3315  -11.2528 C   0  0  0  0  0  0
   -0.1404   -2.5263  -10.9709 C   0  0  0  0  0  0
   -2.2572   -1.7878  -12.1903 C   0  0  0  0  0  0
   -3.7040   -2.2611  -11.6413 C   0  0  0  0  0  0
   -3.8654   -3.3755  -10.5512 C   0  0  0  0  0  0
   -5.0645   -4.4182  -10.7060 C   0  0  0  0  0  0
   -6.5406   -4.0223  -11.1049 C   0  0  0  0  0  0
   -7.6816   -5.0608  -10.9408 C   0  0  0  0  0  0
   -8.7850   -4.7321   -9.8620 C   0  0  0  0  0  0
   -8.2909   -4.5324   -8.4238 C   0  0  0  0  0  0
   -7.5228   -5.6986   -7.7395 C   0  0  0  0  0  0
   -8.0801   -7.1519   -7.7923 C   0  0  0  0  0  0
   -7.9010   -7.8988   -9.1066 C   0  0  0  0  0  0
   -7.5747   -7.9500   -6.6591 N   0  0  0  0  0  0
   -6.2509   -5.7587   -8.4341 O   0  0  0  0  0  0
   -9.4686   -3.5445  -10.2771 O   0  0  0  0  0  0
   -4.2827   -1.0807  -11.0596 O   0  0  0  0  0  0
    0.6638   -0.7194   -8.7024 O   0  0  0  0  0  0
    0.5077   -1.2518   -7.4625 C   0  0  0  0  0  0
    0.9519   -0.7998   -6.4243 O   0  0  0  0  0  0
   -0.3977   -2.4478   -7.5686 C   0  0  0  0  0  0
   -1.7222   -2.2545   -6.8131 C   0  0  0  0  0  0
   -2.8395   -3.1631   -7.3417 C   0  0  0  0  0  0
   -2.4214   -4.6149   -7.3119 C   0  0  0  0  0  0
   -2.0083   -5.1813   -6.3058 O   0  0  0  0  0  0
   -2.5465   -5.2314   -8.4964 O   0  0  0  0  0  0
   -1.4233   -2.5892   -5.3452 C   0  0  0  0  0  0
   -1.9992   -2.0560   -4.4090 O   0  0  0  0  0  0
   -0.4397   -3.4826   -5.1709 O   0  0  0  0  0  0
   -0.3486    2.0999  -10.8978 O   0  0  0  0  0  0
    0.1706    3.2221  -11.5215 C   0  0  0  0  0  0
    1.0881    3.9020  -11.0805 O   0  0  0  0  0  0
   -0.5351    3.5318  -12.8482 C   0  0  0  0  0  0
   -1.9870    4.0906  -12.7288 C   0  0  0  0  0  0
   -3.1541    3.1568  -13.0981 C   0  0  0  0  0  0
   -3.5206    2.2102  -11.9918 C   0  0  0  0  0  0
   -2.9653    1.1476  -11.7486 O   0  0  0  0  0  0
   -4.5435    2.6602  -11.2491 O   0  0  0  0  0  0
   -2.3200    4.7153  -11.3683 C   0  0  0  0  0  0
   -1.4872    4.8910  -10.5008 O   0  0  0  0  0  0
   -3.5862    5.1610  -11.2296 O   0  0  0  0  0  0
   -6.5669   -7.8197   -6.5819 H   0  0  0  0  0  0
   -7.6961   -8.9414   -6.8780 H   0  0  0  0  0  0
   -5.8306   -4.8912   -8.2546 H   0  0  0  0  0  0
   -8.8247   -2.8126  -10.2926 H   0  0  0  0  0  0
   -3.7908   -0.8734  -10.2475 H   0  0  0  0  0  0
   -2.1016   -6.0980   -8.5641 H   0  0  0  0  0  0
   -0.1777   -3.6250   -4.2276 H   0  0  0  0  0  0
   -4.6645    2.0179  -10.5183 H   0  0  0  0  0  0
   -4.1645    5.0328  -12.0141 H   0  0  0  0  0  0
  1  2  1  0  0  0
  2  3  1  0  0  0
  3  4  1  0  0  0
  4  5  1  0  0  0
  5  6  1  0  0  0
  5  7  1  0  0  0
  7  8  1  0  0  0
  7 39  1  0  0  0
  8  9  1  0  0  0
  8 27  1  0  0  0
  9 10  1  0  0  0
 10 11  1  0  0  0
 10 12  1  0  0  0
 12 13  1  0  0  0
 13 14  1  0  0  0
 13 26  1  0  0  0
 14 15  1  0  0  0
 15 16  1  0  0  0
 16 17  1  0  0  0
 17 18  1  0  0  0
 18 19  1  0  0  0
 18 25  1  0  0  0
 19 20  1  0  0  0
 20 21  1  0  0  0
 20 24  1  0  0  0
 21 22  1  0  0  0
 21 23  1  0  0  0
 23 51  1  0  0  0
 23 52  1  0  0  0
 24 53  1  0  0  0
 25 54  1  0  0  0
 26 55  1  0  0  0
 27 28  1  0  0  0
 28 29  2  0  0  0
 28 30  1  0  0  0
 30 31  1  0  0  0
 31 32  1  0  0  0
 31 36  1  0  0  0
 32 33  1  0  0  0
 33 34  2  0  0  0
 33 35  1  0  0  0
 35 56  1  0  0  0
 36 37  2  0  0  0
 36 38  1  0  0  0
 38 57  1  0  0  0
 39 40  1  0  0  0
 40 41  2  0  0  0
 40 42  1  0  0  0
 42 43  1  0  0  0
 43 44  1  0  0  0
 43 48  1  0  0  0
 44 45  1  0  0  0
 45 46  2  0  0  0
 45 47  1  0  0  0
 47 58  1  0  0  0
 48 49  2  0  0  0
 48 50  1  0  0  0
 50 59  1  0  0  0
M  END
>  <AUTHOR>
    GENERATED BY OPEN BABEL 2.4.1

>  <CHROM.1>
-178.91463585,164.76783026,91.82273354,-92.31746623,160.41960295,41.20129750
51.88006125,137.70844663,76.35487084,-29.49782425,-52.22504429,-140.72752835
-70.22492743,-43.88396030,-167.36513149,113.69325876,-58.16810257,-58.63934984
-62.83370946,-47.78581642,76.49773269,62.32046360,-47.84277216,-89.26331054
-115.48557960,157.28320148,55.48443433,148.62417838,54.24335983,166.72108446
173.57477355,-19.05385067,71.93390762,-106.78901866,81.09664428,7.38889143
-82.86856867,-175.71069242,0.38810178,-2.65115667,-0.78517239,-9.37125783
-0.88295484,0.56382148,2.56244173

>  <COMPND>
    UNNAMED

>  <MASTER>
        0    0    0    0    0    0    0    0  109    0  109    0

>  <Name>
FB1.pdb

>  <RI>
0

>  <Rbt.Current_Directory>
/cluster/tossine/FB1_39T3/p3/1_clust02

>  <Rbt.Executable>
rbdock/0.1.0

>  <Rbt.Library>
librxdock.so/0.1.0

>  <Rbt.Parameter_File>
/cluster/rxdock/data/scripts/dock.prm

>  <Rbt.Receptor>
rx_2.prm

>  <SCORE>
36.0314

>  <SCORE.INTER>
5.60015

>  <SCORE.INTER.CONST>
1

>  <SCORE.INTER.POLAR>
-3.11083

>  <SCORE.INTER.REPUL>
0.12983

>  <SCORE.INTER.ROT>
32

>  <SCORE.INTER.VDW>
-21.8722

>  <SCORE.INTER.norm>
0.112003

>  <SCORE.INTRA>
28.4305

>  <SCORE.INTRA.DIHEDRAL>
36.307

>  <SCORE.INTRA.DIHEDRAL.0>
47.3121

>  <SCORE.INTRA.POLAR>
1.47808

>  <SCORE.INTRA.POLAR.0>
-1.47808

>  <SCORE.INTRA.REPUL>
0

>  <SCORE.INTRA.REPUL.0>
0

>  <SCORE.INTRA.VDW>
5.25156

>  <SCORE.INTRA.VDW.0>
-2.78316

>  <SCORE.INTRA.norm>
0.56861

>  <SCORE.RESTR>
2.00071

>  <SCORE.RESTR.CAVITY>
2.00071

>  <SCORE.RESTR.norm>
0.0400142

>  <SCORE.SYSTEM>
0

>  <SCORE.SYSTEM.CONST>
0

>  <SCORE.SYSTEM.DIHEDRAL>
0

>  <SCORE.SYSTEM.norm>
0

>  <SCORE.heavy>
50

>  <SCORE.norm>
0.720627

$$$$
