FB1.pdb
  RxDock  10072008413D
librxdock.so/0.1.0
 59 58  0  0  0  0  0  0  0  0999 V2000
   -7.2324    2.2793  -11.4180 C   0  0  0  0  0  0
   -6.5824    1.4378  -12.5137 C   0  0  0  0  0  0
   -6.2006    0.0377  -12.0054 C   0  0  0  0  0  0
   -7.2376   -1.0547  -12.3673 C   0  0  0  0  0  0
   -6.6404   -2.4896  -12.5789 C   0  0  0  0  0  0
   -5.8564   -2.4976  -13.9115 C   0  0  0  0  0  0
   -5.7242   -2.9775  -11.3786 C   0  0  0  0  0  0
   -6.3485   -4.0694  -10.3866 C   0  0  0  0  0  0
   -7.3359   -5.2389  -10.8175 C   0  0  0  0  0  0
   -8.5633   -5.5439   -9.7584 C   0  0  0  0  0  0
   -9.8921   -5.3452  -10.4857 C   0  0  0  0  0  0
   -8.5467   -6.9763   -9.0565 C   0  0  0  0  0  0
   -9.3857   -7.3430   -7.7223 C   0  0  0  0  0  0
   -8.7842   -7.1906   -6.2831 C   0  0  0  0  0  0
   -9.7671   -7.3302   -5.0327 C   0  0  0  0  0  0
   -9.4242   -6.8339   -3.5731 C   0  0  0  0  0  0
  -10.4640   -7.0233   -2.4371 C   0  0  0  0  0  0
  -11.3306   -5.7611   -2.0562 C   0  0  0  0  0  0
  -10.9622   -5.0544   -0.7457 C   0  0  0  0  0  0
  -11.8594   -3.8790   -0.2644 C   0  0  0  0  0  0
  -12.2366   -3.7359    1.2398 C   0  0  0  0  0  0
  -11.0805   -3.5593    2.2144 C   0  0  0  0  0  0
  -13.2515   -2.6821    1.4291 N   0  0  0  0  0  0
  -11.0983   -2.6841   -0.5759 O   0  0  0  0  0  0
  -11.2288   -4.8160   -3.1268 O   0  0  0  0  0  0
  -10.5236   -6.4648   -7.7482 O   0  0  0  0  0  0
   -5.2218   -4.7561   -9.7771 O   0  0  0  0  0  0
   -5.4562   -5.4107   -8.6102 C   0  0  0  0  0  0
   -6.5035   -5.4263   -7.9919 O   0  0  0  0  0  0
   -4.2291   -6.2039   -8.2546 C   0  0  0  0  0  0
   -3.2964   -5.4494   -7.2937 C   0  0  0  0  0  0
   -2.5638   -6.3879   -6.3263 C   0  0  0  0  0  0
   -3.4979   -7.4401   -5.7752 C   0  0  0  0  0  0
   -4.2336   -8.1276   -6.4751 O   0  0  0  0  0  0
   -3.4459   -7.5544   -4.4399 O   0  0  0  0  0  0
   -2.2826   -4.7136   -8.1807 C   0  0  0  0  0  0
   -2.5033   -4.4239   -9.3468 O   0  0  0  0  0  0
   -1.1102   -4.4567   -7.5845 O   0  0  0  0  0  0
   -4.3772   -3.3708  -11.8589 O   0  0  0  0  0  0
   -3.3393   -2.4634  -11.7263 C   0  0  0  0  0  0
   -2.5042   -2.2296  -12.5902 O   0  0  0  0  0  0
   -3.3439   -1.7669  -10.3591 C   0  0  0  0  0  0
   -2.7440   -0.3268  -10.3306 C   0  0  0  0  0  0
   -1.2652   -0.1514  -10.7216 C   0  0  0  0  0  0
   -0.3229   -0.4025   -9.5799 C   0  0  0  0  0  0
    0.2809   -1.4455   -9.3693 O   0  0  0  0  0  0
   -0.1804    0.6702   -8.7866 O   0  0  0  0  0  0
   -3.5476    0.7144  -11.1195 C   0  0  0  0  0  0
   -4.4395    1.3743  -10.6236 O   0  0  0  0  0  0
   -3.1297    0.9324  -12.3840 O   0  0  0  0  0  0
  -14.0975   -2.9381    0.9218 H   0  0  0  0  0  0
  -12.9221   -1.8262    0.9770 H   0  0  0  0  0  0
  -10.9330   -2.7415   -1.5407 H   0  0  0  0  0  0
  -10.3433   -4.4099   -3.0909 H   0  0  0  0  0  0
  -11.1629   -6.7814   -7.0882 H   0  0  0  0  0  0
   -3.9718   -8.2860   -4.0636 H   0  0  0  0  0  0
   -0.4892   -3.9049   -8.1218 H   0  0  0  0  0  0
    0.4620    0.4209   -8.0891 H   0  0  0  0  0  0
   -2.4274    1.6131  -12.4825 H   0  0  0  0  0  0
  1  2  1  0  0  0
  2  3  1  0  0  0
  3  4  1  0  0  0
  4  5  1  0  0  0
  5  6  1  0  0  0
  5  7  1  0  0  0
  7  8  1  0  0  0
  7 39  1  0  0  0
  8  9  1  0  0  0
  8 27  1  0  0  0
  9 10  1  0  0  0
 10 11  1  0  0  0
 10 12  1  0  0  0
 12 13  1  0  0  0
 13 14  1  0  0  0
 13 26  1  0  0  0
 14 15  1  0  0  0
 15 16  1  0  0  0
 16 17  1  0  0  0
 17 18  1  0  0  0
 18 19  1  0  0  0
 18 25  1  0  0  0
 19 20  1  0  0  0
 20 21  1  0  0  0
 20 24  1  0  0  0
 21 22  1  0  0  0
 21 23  1  0  0  0
 23 51  1  0  0  0
 23 52  1  0  0  0
 24 53  1  0  0  0
 25 54  1  0  0  0
 26 55  1  0  0  0
 27 28  1  0  0  0
 28 29  2  0  0  0
 28 30  1  0  0  0
 30 31  1  0  0  0
 31 32  1  0  0  0
 31 36  1  0  0  0
 32 33  1  0  0  0
 33 34  2  0  0  0
 33 35  1  0  0  0
 35 56  1  0  0  0
 36 37  2  0  0  0
 36 38  1  0  0  0
 38 57  1  0  0  0
 39 40  1  0  0  0
 40 41  2  0  0  0
 40 42  1  0  0  0
 42 43  1  0  0  0
 43 44  1  0  0  0
 43 48  1  0  0  0
 44 45  1  0  0  0
 45 46  2  0  0  0
 45 47  1  0  0  0
 47 58  1  0  0  0
 48 49  2  0  0  0
 48 50  1  0  0  0
 50 59  1  0  0  0
M  END
>  <AUTHOR>
    GENERATED BY OPEN BABEL 2.4.1

>  <CHROM.1>
98.34662700,149.26731323,-71.93926023,104.94791313,34.88817800,99.24842737
-140.26524642,159.41293149,120.72958141,162.77763095,-91.64761043,169.39247713
166.96074848,-162.90929905,179.91153782,-99.98372155,-105.19831405,-174.95568887
-73.73773010,138.55787783,60.61382137,57.00428629,61.62204551,-3.71002112
94.85908276,146.88494162,-43.24546464,23.27738272,49.65447092,-174.16387281
-174.21557454,-136.73998425,-151.10457387,-61.34800165,-84.15466565,90.04718724
98.09430910,-178.72509061,-87.47348043,-6.21023804,-3.69090965,-7.78493301
0.83343801,0.49854550,-0.77374708

>  <COMPND>
    UNNAMED

>  <MASTER>
        0    0    0    0    0    0    0    0  109    0  109    0

>  <Name>
FB1.pdb

>  <RI>
0

>  <Rbt.Current_Directory>
/cluster/tossine/FB1_39T3/p3/1_clust02

>  <Rbt.Executable>
rbdock/0.1.0

>  <Rbt.Library>
librxdock.so/0.1.0

>  <Rbt.Parameter_File>
/cluster/rxdock/data/scripts/dock.prm

>  <Rbt.Receptor>
rx_2.prm

>  <SCORE>
61.2911

>  <SCORE.INTER>
12.7014

>  <SCORE.INTER.CONST>
1

>  <SCORE.INTER.POLAR>
-1.76839

>  <SCORE.INTER.REPUL>
0.327068

>  <SCORE.INTER.ROT>
32

>  <SCORE.INTER.VDW>
-20.3214

>  <SCORE.INTER.norm>
0.254028

>  <SCORE.INTRA>
41.8698

>  <SCORE.INTRA.DIHEDRAL>
60.7729

>  <SCORE.INTRA.DIHEDRAL.0>
47.3121

>  <SCORE.INTRA.POLAR>
1.47808

>  <SCORE.INTRA.POLAR.0>
-1.47808

>  <SCORE.INTRA.REPUL>
0

>  <SCORE.INTRA.REPUL.0>
0

>  <SCORE.INTRA.VDW>
6.45795

>  <SCORE.INTRA.VDW.0>
-2.78316

>  <SCORE.INTRA.norm>
0.837397

>  <SCORE.RESTR>
6.71986

>  <SCORE.RESTR.CAVITY>
6.71986

>  <SCORE.RESTR.norm>
0.134397

>  <SCORE.SYSTEM>
0

>  <SCORE.SYSTEM.CONST>
0

>  <SCORE.SYSTEM.DIHEDRAL>
0

>  <SCORE.SYSTEM.norm>
0

>  <SCORE.heavy>
50

>  <SCORE.norm>
1.22582

$$$$
