FB1.pdb
  RxDock  10072009123D
librxdock.so/0.1.0
 59 58  0  0  0  0  0  0  0  0999 V2000
   -5.1628   -7.7706   -8.0274 C   0  0  0  0  0  0
   -5.1352   -6.4546   -8.8012 C   0  0  0  0  0  0
   -3.8174   -5.6931   -8.5827 C   0  0  0  0  0  0
   -3.8427   -4.7559   -7.3496 C   0  0  0  0  0  0
   -2.4341   -4.2729   -6.8567 C   0  0  0  0  0  0
   -1.3523   -5.0381   -7.6533 C   0  0  0  0  0  0
   -2.2245   -2.7046   -6.9772 C   0  0  0  0  0  0
   -1.3046   -2.0079   -5.8662 C   0  0  0  0  0  0
   -0.5049   -0.6476   -6.0621 C   0  0  0  0  0  0
    1.1305   -0.7652   -5.8802 C   0  0  0  0  0  0
    1.6666   -1.7379   -6.9294 C   0  0  0  0  0  0
    1.9463    0.6037   -5.9536 C   0  0  0  0  0  0
    2.0003    1.6933   -4.7584 C   0  0  0  0  0  0
    3.2429    2.6182   -4.5202 C   0  0  0  0  0  0
    4.1897    2.9493   -5.7624 C   0  0  0  0  0  0
    3.7181    3.7172   -7.0595 C   0  0  0  0  0  0
    2.4290    3.2604   -7.7923 C   0  0  0  0  0  0
    2.0816    4.0049   -9.1392 C   0  0  0  0  0  0
    0.7982    3.5586   -9.8506 C   0  0  0  0  0  0
    0.9200    2.5472  -11.0256 C   0  0  0  0  0  0
    2.2465    1.7667  -11.2635 C   0  0  0  0  0  0
    2.7883    0.9753  -10.0814 C   0  0  0  0  0  0
    2.1481    0.9176  -12.4659 N   0  0  0  0  0  0
   -0.0694    1.5268  -10.7363 O   0  0  0  0  0  0
    1.9818    5.4049   -8.8569 O   0  0  0  0  0  0
    0.9103    2.5911   -5.0273 O   0  0  0  0  0  0
   -2.1670   -1.7569   -4.7236 O   0  0  0  0  0  0
   -2.3565   -2.7849   -3.8561 C   0  0  0  0  0  0
   -1.5880   -3.7055   -3.6527 O   0  0  0  0  0  0
   -3.6377   -2.5449   -3.1062 C   0  0  0  0  0  0
   -3.8813   -3.5887   -2.0046 C   0  0  0  0  0  0
   -3.6557   -5.0249   -2.4942 C   0  0  0  0  0  0
   -3.9809   -6.0274   -1.4113 C   0  0  0  0  0  0
   -4.4239   -5.7172   -0.3107 O   0  0  0  0  0  0
   -3.7399   -7.2974   -1.7690 O   0  0  0  0  0  0
   -2.8904   -3.2551   -0.8808 C   0  0  0  0  0  0
   -3.1080   -3.5025    0.2955 O   0  0  0  0  0  0
   -1.7823   -2.6224   -1.2904 O   0  0  0  0  0  0
   -1.8189   -2.3227   -8.3518 O   0  0  0  0  0  0
   -2.8079   -2.1392   -9.3038 C   0  0  0  0  0  0
   -3.6980   -2.9434   -9.5473 O   0  0  0  0  0  0
   -2.6715   -0.7977  -10.0362 C   0  0  0  0  0  0
   -2.0831   -0.8707  -11.4794 C   0  0  0  0  0  0
   -0.7531   -1.6196  -11.6813 C   0  0  0  0  0  0
   -0.1967   -2.1814  -10.4049 C   0  0  0  0  0  0
   -0.1572   -3.3666  -10.1044 O   0  0  0  0  0  0
    0.2917   -1.2295   -9.5951 O   0  0  0  0  0  0
   -3.0607   -1.3895  -12.5411 C   0  0  0  0  0  0
   -3.7402   -0.6534  -13.2290 O   0  0  0  0  0  0
   -3.0433   -2.7239  -12.7420 O   0  0  0  0  0  0
    1.4076    0.2308  -12.3302 H   0  0  0  0  0  0
    3.0060    0.3673  -12.5483 H   0  0  0  0  0  0
   -0.9182    2.0145  -10.6819 H   0  0  0  0  0  0
    1.1920    5.5481   -8.3036 H   0  0  0  0  0  0
    0.3530    2.1900   -5.7151 H   0  0  0  0  0  0
   -3.5379   -7.4327   -2.7147 H   0  0  0  0  0  0
   -1.9333   -1.7007   -1.6169 H   0  0  0  0  0  0
    0.3174   -0.4009  -10.1186 H   0  0  0  0  0  0
   -3.8798   -3.1072  -13.0879 H   0  0  0  0  0  0
  1  2  1  0  0  0
  2  3  1  0  0  0
  3  4  1  0  0  0
  4  5  1  0  0  0
  5  6  1  0  0  0
  5  7  1  0  0  0
  7  8  1  0  0  0
  7 39  1  0  0  0
  8  9  1  0  0  0
  8 27  1  0  0  0
  9 10  1  0  0  0
 10 11  1  0  0  0
 10 12  1  0  0  0
 12 13  1  0  0  0
 13 14  1  0  0  0
 13 26  1  0  0  0
 14 15  1  0  0  0
 15 16  1  0  0  0
 16 17  1  0  0  0
 17 18  1  0  0  0
 18 19  1  0  0  0
 18 25  1  0  0  0
 19 20  1  0  0  0
 20 21  1  0  0  0
 20 24  1  0  0  0
 21 22  1  0  0  0
 21 23  1  0  0  0
 23 51  1  0  0  0
 23 52  1  0  0  0
 24 53  1  0  0  0
 25 54  1  0  0  0
 26 55  1  0  0  0
 27 28  1  0  0  0
 28 29  2  0  0  0
 28 30  1  0  0  0
 30 31  1  0  0  0
 31 32  1  0  0  0
 31 36  1  0  0  0
 32 33  1  0  0  0
 33 34  2  0  0  0
 33 35  1  0  0  0
 35 56  1  0  0  0
 36 37  2  0  0  0
 36 38  1  0  0  0
 38 57  1  0  0  0
 39 40  1  0  0  0
 40 41  2  0  0  0
 40 42  1  0  0  0
 42 43  1  0  0  0
 43 44  1  0  0  0
 43 48  1  0  0  0
 44 45  1  0  0  0
 45 46  2  0  0  0
 45 47  1  0  0  0
 47 58  1  0  0  0
 48 49  2  0  0  0
 48 50  1  0  0  0
 50 59  1  0  0  0
M  END
>  <AUTHOR>
    GENERATED BY OPEN BABEL 2.4.1

>  <CHROM.1>
-87.99231675,163.83473733,-7.49729377,147.16269944,154.96514400,84.20068265
-120.04081301,83.73426297,60.85722344,75.92768239,149.83530251,25.72310673
11.88148799,62.01723291,-49.87471882,-175.52842469,-179.37253566,-98.07009977
-68.37359306,13.63162826,54.59229185,57.93236971,-61.71945972,26.53685709
-174.76373790,-47.02431112,-176.70430767,151.20055510,3.03863400,-10.11635469
68.13599980,-51.07882863,103.54494309,-51.97658047,-0.39643240,94.39526988
108.64984186,-10.56979524,154.09654320,-1.05445085,-1.47773330,-7.15992564
2.39739949,0.89360832,1.68372263

>  <COMPND>
    UNNAMED

>  <MASTER>
        0    0    0    0    0    0    0    0  109    0  109    0

>  <Name>
FB1.pdb

>  <RI>
0

>  <Rbt.Current_Directory>
/cluster/tossine/FB1_39T3/p3/1_clust02

>  <Rbt.Executable>
rbdock/0.1.0

>  <Rbt.Library>
librxdock.so/0.1.0

>  <Rbt.Parameter_File>
/cluster/rxdock/data/scripts/dock.prm

>  <Rbt.Receptor>
rx_3.prm

>  <SCORE>
96.3444

>  <SCORE.INTER>
46.3375

>  <SCORE.INTER.CONST>
1

>  <SCORE.INTER.POLAR>
-2.44004

>  <SCORE.INTER.REPUL>
1.17334

>  <SCORE.INTER.ROT>
32

>  <SCORE.INTER.VDW>
11.3669

>  <SCORE.INTER.norm>
0.92675

>  <SCORE.INTRA>
44.7782

>  <SCORE.INTRA.DIHEDRAL>
64.7101

>  <SCORE.INTRA.DIHEDRAL.0>
47.3121

>  <SCORE.INTRA.POLAR>
0.478077

>  <SCORE.INTRA.POLAR.0>
-1.47808

>  <SCORE.INTRA.REPUL>
0.0172666

>  <SCORE.INTRA.REPUL.0>
0

>  <SCORE.INTRA.VDW>
10.7114

>  <SCORE.INTRA.VDW.0>
-2.78316

>  <SCORE.INTRA.norm>
0.895565

>  <SCORE.RESTR>
5.22861

>  <SCORE.RESTR.CAVITY>
5.22861

>  <SCORE.RESTR.norm>
0.104572

>  <SCORE.SYSTEM>
0

>  <SCORE.SYSTEM.CONST>
0

>  <SCORE.SYSTEM.DIHEDRAL>
0

>  <SCORE.SYSTEM.norm>
0

>  <SCORE.heavy>
50

>  <SCORE.norm>
1.92689

$$$$
