FB1.pdb
  RxDock  10072008033D
librxdock.so/0.1.0
 59 58  0  0  0  0  0  0  0  0999 V2000
   -4.6207   -9.2893  -10.7798 C   0  0  0  0  0  0
   -5.2497   -7.9750  -11.2363 C   0  0  0  0  0  0
   -6.0429   -7.3002  -10.1051 C   0  0  0  0  0  0
   -5.1456   -6.7075   -8.9901 C   0  0  0  0  0  0
   -4.0304   -5.7247   -9.4909 C   0  0  0  0  0  0
   -4.6422   -4.8083  -10.5755 C   0  0  0  0  0  0
   -3.3732   -4.8674   -8.3284 C   0  0  0  0  0  0
   -3.4574   -5.4694   -6.8463 C   0  0  0  0  0  0
   -2.9548   -6.9153   -6.4160 C   0  0  0  0  0  0
   -4.1247   -7.9135   -5.8192 C   0  0  0  0  0  0
   -4.5489   -8.8789   -6.9247 C   0  0  0  0  0  0
   -3.7441   -8.7369   -4.5070 C   0  0  0  0  0  0
   -4.7592   -9.7319   -3.7335 C   0  0  0  0  0  0
   -5.0741   -9.5889   -2.2050 C   0  0  0  0  0  0
   -3.8798   -9.7864   -1.1639 C   0  0  0  0  0  0
   -3.6885   -8.9214    0.1436 C   0  0  0  0  0  0
   -4.9048   -8.6561    1.0697 C   0  0  0  0  0  0
   -5.0199   -9.5581    2.3590 C   0  0  0  0  0  0
   -3.7544   -9.6821    3.2166 C   0  0  0  0  0  0
   -3.9060  -10.1526    4.6910 C   0  0  0  0  0  0
   -2.6509  -10.3512    5.5914 C   0  0  0  0  0  0
   -2.8267  -10.0537    7.0739 C   0  0  0  0  0  0
   -2.0648  -11.6897    5.3880 N   0  0  0  0  0  0
   -4.6682   -9.1005    5.3361 O   0  0  0  0  0  0
   -6.0720   -9.0308    3.1744 O   0  0  0  0  0  0
   -6.0235   -9.5573   -4.3951 O   0  0  0  0  0  0
   -2.7083   -4.5601   -5.9952 O   0  0  0  0  0  0
   -3.3828   -3.4983   -5.4825 C   0  0  0  0  0  0
   -4.4450   -3.0601   -5.8814 O   0  0  0  0  0  0
   -2.6467   -3.0092   -4.2658 C   0  0  0  0  0  0
   -3.5338   -2.9806   -3.0109 C   0  0  0  0  0  0
   -2.7509   -2.6094   -1.7450 C   0  0  0  0  0  0
   -3.1910   -3.4470   -0.5667 C   0  0  0  0  0  0
   -3.9232   -4.4256   -0.6660 O   0  0  0  0  0  0
   -2.7014   -3.0184    0.6061 O   0  0  0  0  0  0
   -4.6183   -1.9295   -3.2849 C   0  0  0  0  0  0
   -5.7686   -2.0390   -2.8883 O   0  0  0  0  0  0
   -4.2123   -0.8998   -4.0404 O   0  0  0  0  0  0
   -1.9929   -4.4553   -8.6818 O   0  0  0  0  0  0
   -1.8221   -3.3221   -9.4593 C   0  0  0  0  0  0
   -2.7106   -2.5267   -9.7356 O   0  0  0  0  0  0
   -0.3765   -3.1619   -9.9482 C   0  0  0  0  0  0
    0.4438   -2.0186   -9.2740 C   0  0  0  0  0  0
   -0.2287   -0.6428   -9.1148 C   0  0  0  0  0  0
    0.6172    0.3394   -8.3571 C   0  0  0  0  0  0
    1.7517    0.6848   -8.6575 O   0  0  0  0  0  0
   -0.0147    0.8411   -7.2850 O   0  0  0  0  0  0
    1.0510   -2.3859   -7.9143 C   0  0  0  0  0  0
    0.5091   -2.1275   -6.8577 O   0  0  0  0  0  0
    2.1849   -3.1160   -7.9644 O   0  0  0  0  0  0
   -1.5091  -11.6847    4.5338 H   0  0  0  0  0  0
   -2.8211  -12.3533    5.2064 H   0  0  0  0  0  0
   -5.5671   -9.4771    5.4428 H   0  0  0  0  0  0
   -5.8263   -8.1255    3.4401 H   0  0  0  0  0  0
   -6.3731   -8.6843   -4.1499 H   0  0  0  0  0  0
   -2.8598   -3.6116    1.3654 H   0  0  0  0  0  0
   -4.9376   -0.4417   -4.5332 H   0  0  0  0  0  0
   -0.9229    0.4717   -7.2955 H   0  0  0  0  0  0
    2.6151   -3.1631   -8.8469 H   0  0  0  0  0  0
  1  2  1  0  0  0
  2  3  1  0  0  0
  3  4  1  0  0  0
  4  5  1  0  0  0
  5  6  1  0  0  0
  5  7  1  0  0  0
  7  8  1  0  0  0
  7 39  1  0  0  0
  8  9  1  0  0  0
  8 27  1  0  0  0
  9 10  1  0  0  0
 10 11  1  0  0  0
 10 12  1  0  0  0
 12 13  1  0  0  0
 13 14  1  0  0  0
 13 26  1  0  0  0
 14 15  1  0  0  0
 15 16  1  0  0  0
 16 17  1  0  0  0
 17 18  1  0  0  0
 18 19  1  0  0  0
 18 25  1  0  0  0
 19 20  1  0  0  0
 20 21  1  0  0  0
 20 24  1  0  0  0
 21 22  1  0  0  0
 21 23  1  0  0  0
 23 51  1  0  0  0
 23 52  1  0  0  0
 24 53  1  0  0  0
 25 54  1  0  0  0
 26 55  1  0  0  0
 27 28  1  0  0  0
 28 29  2  0  0  0
 28 30  1  0  0  0
 30 31  1  0  0  0
 31 32  1  0  0  0
 31 36  1  0  0  0
 32 33  1  0  0  0
 33 34  2  0  0  0
 33 35  1  0  0  0
 35 56  1  0  0  0
 36 37  2  0  0  0
 36 38  1  0  0  0
 38 57  1  0  0  0
 39 40  1  0  0  0
 40 41  2  0  0  0
 40 42  1  0  0  0
 42 43  1  0  0  0
 43 44  1  0  0  0
 43 48  1  0  0  0
 44 45  1  0  0  0
 45 46  2  0  0  0
 45 47  1  0  0  0
 47 58  1  0  0  0
 48 49  2  0  0  0
 48 50  1  0  0  0
 50 59  1  0  0  0
M  END
>  <AUTHOR>
    GENERATED BY OPEN BABEL 2.4.1

>  <CHROM.1>
71.37138600,53.48855551,41.98732682,23.61506244,54.55693286,83.70475778,-118.67433926
86.95998799,100.49349779,177.89683024,-125.57247361,-63.13875779,-71.88593783
141.07917896,46.44613779,99.93101130,49.10095098,160.67732554,-62.10748341
177.55012193,147.34364655,105.17476589,79.39093696,-17.44767829,-123.84042936
174.57600476,-139.60470948,144.61896252,10.44351487,-171.42971820,155.27307621
10.19447382,-107.94083825,-45.73384071,175.43325418,-95.34916702,57.12051542
-3.61451988,13.37776161,-3.11982337,-5.54231213,-4.22338633,1.18834892,-1.09155786
-1.42586470

>  <COMPND>
    UNNAMED

>  <MASTER>
        0    0    0    0    0    0    0    0  109    0  109    0

>  <Name>
FB1.pdb

>  <RI>
0

>  <Rbt.Current_Directory>
/cluster/tossine/FB1_39T3/p3/1_clust02

>  <Rbt.Executable>
rbdock/0.1.0

>  <Rbt.Library>
librxdock.so/0.1.0

>  <Rbt.Parameter_File>
/cluster/rxdock/data/scripts/dock.prm

>  <Rbt.Receptor>
rx_1.prm

>  <SCORE>
76.8892

>  <SCORE.INTER>
50.6791

>  <SCORE.INTER.CONST>
1

>  <SCORE.INTER.POLAR>
-2.4155

>  <SCORE.INTER.REPUL>
0.505018

>  <SCORE.INTER.ROT>
32

>  <SCORE.INTER.VDW>
18.9668

>  <SCORE.INTER.norm>
1.01358

>  <SCORE.INTRA>
26.195

>  <SCORE.INTRA.DIHEDRAL>
30.7398

>  <SCORE.INTRA.DIHEDRAL.0>
47.3121

>  <SCORE.INTRA.POLAR>
1.47808

>  <SCORE.INTRA.POLAR.0>
-1.47808

>  <SCORE.INTRA.REPUL>
0

>  <SCORE.INTRA.REPUL.0>
0

>  <SCORE.INTRA.VDW>
5.79966

>  <SCORE.INTRA.VDW.0>
-2.78316

>  <SCORE.INTRA.norm>
0.523901

>  <SCORE.RESTR>
0.0149892

>  <SCORE.RESTR.CAVITY>
0.0149892

>  <SCORE.RESTR.norm>
0.000299783

>  <SCORE.SYSTEM>
0

>  <SCORE.SYSTEM.CONST>
0

>  <SCORE.SYSTEM.DIHEDRAL>
0

>  <SCORE.SYSTEM.norm>
0

>  <SCORE.heavy>
50

>  <SCORE.norm>
1.53778

$$$$
