FB1.pdb
  RxDock  10072007213D
librxdock.so/0.1.0
 59 58  0  0  0  0  0  0  0  0999 V2000
   -3.8595   -2.3548  -12.9528 C   0  0  0  0  0  0
   -4.3172   -1.1227  -12.1758 C   0  0  0  0  0  0
   -3.1301   -0.2381  -11.7603 C   0  0  0  0  0  0
   -2.4733   -0.6728  -10.4263 C   0  0  0  0  0  0
   -1.7855   -2.0822  -10.4560 C   0  0  0  0  0  0
   -0.3454   -1.9086  -10.9914 C   0  0  0  0  0  0
   -1.7832   -2.8154   -9.0488 C   0  0  0  0  0  0
   -1.3306   -1.9489   -7.7797 C   0  0  0  0  0  0
   -0.7839   -2.5467   -6.4115 C   0  0  0  0  0  0
   -1.6584   -2.1422   -5.0725 C   0  0  0  0  0  0
   -2.7629   -1.1724   -5.4892 C   0  0  0  0  0  0
   -2.2927   -3.3557   -4.2540 C   0  0  0  0  0  0
   -3.3360   -3.1778   -3.0299 C   0  0  0  0  0  0
   -3.0104   -3.6537   -1.5726 C   0  0  0  0  0  0
   -2.7872   -5.2139   -1.3175 C   0  0  0  0  0  0
   -3.8639   -6.3276   -1.6255 C   0  0  0  0  0  0
   -3.4827   -7.8236   -1.4694 C   0  0  0  0  0  0
   -4.4209   -8.8693   -2.1873 C   0  0  0  0  0  0
   -4.3451   -8.9110   -3.7187 C   0  0  0  0  0  0
   -5.4269   -9.7204   -4.4886 C   0  0  0  0  0  0
   -6.8013   -9.0748   -4.8346 C   0  0  0  0  0  0
   -7.8216   -9.9769   -5.5146 C   0  0  0  0  0  0
   -7.3857   -8.4166   -3.6507 N   0  0  0  0  0  0
   -4.8190  -10.0192   -5.7712 O   0  0  0  0  0  0
   -4.1018  -10.1698   -1.6806 O   0  0  0  0  0  0
   -3.5429   -1.7592   -2.9239 O   0  0  0  0  0  0
   -0.2643   -1.0766   -8.2428 O   0  0  0  0  0  0
   -0.2130    0.1717   -7.7095 C   0  0  0  0  0  0
   -0.4743    0.4745   -6.5608 O   0  0  0  0  0  0
    0.3218    1.1135   -8.7527 C   0  0  0  0  0  0
    1.6114    1.8197   -8.3050 C   0  0  0  0  0  0
    1.9445    3.0416   -9.1708 C   0  0  0  0  0  0
    0.9116    4.1307   -8.9970 C   0  0  0  0  0  0
    1.0113    5.0351   -8.1749 O   0  0  0  0  0  0
   -0.1312    4.0164   -9.8327 O   0  0  0  0  0  0
    1.3717    2.2547   -6.8526 C   0  0  0  0  0  0
    2.1032    1.9299   -5.9297 O   0  0  0  0  0  0
    0.2616    2.9829   -6.6694 O   0  0  0  0  0  0
   -3.0666   -3.5197   -8.8098 O   0  0  0  0  0  0
   -3.0677   -4.9046   -8.8064 C   0  0  0  0  0  0
   -2.3983   -5.5996   -8.0531 O   0  0  0  0  0  0
   -4.0129   -5.4903   -9.8636 C   0  0  0  0  0  0
   -4.1827   -7.0411   -9.8357 C   0  0  0  0  0  0
   -5.2260   -7.6373   -8.8732 C   0  0  0  0  0  0
   -6.5724   -6.9827   -8.9889 C   0  0  0  0  0  0
   -7.5081   -7.3899   -9.6635 O   0  0  0  0  0  0
   -6.6698   -5.8736   -8.2401 O   0  0  0  0  0  0
   -4.4156   -7.6819  -11.2095 C   0  0  0  0  0  0
   -3.7196   -8.5766  -11.6473 O   0  0  0  0  0  0
   -5.5171   -7.2610  -11.8659 O   0  0  0  0  0  0
   -8.0135   -9.0683   -3.1820 H   0  0  0  0  0  0
   -7.9869   -7.6518   -3.9655 H   0  0  0  0  0  0
   -4.0322  -10.5612   -5.5509 H   0  0  0  0  0  0
   -4.7044  -10.8142   -2.0955 H   0  0  0  0  0  0
   -2.6815   -1.3412   -2.7577 H   0  0  0  0  0  0
   -0.8532    4.6577   -9.6881 H   0  0  0  0  0  0
    0.0858    3.2328   -5.7285 H   0  0  0  0  0  0
   -5.8536   -5.8270   -7.6988 H   0  0  0  0  0  0
   -5.7100   -7.7318  -12.7069 H   0  0  0  0  0  0
  1  2  1  0  0  0
  2  3  1  0  0  0
  3  4  1  0  0  0
  4  5  1  0  0  0
  5  6  1  0  0  0
  5  7  1  0  0  0
  7  8  1  0  0  0
  7 39  1  0  0  0
  8  9  1  0  0  0
  8 27  1  0  0  0
  9 10  1  0  0  0
 10 11  1  0  0  0
 10 12  1  0  0  0
 12 13  1  0  0  0
 13 14  1  0  0  0
 13 26  1  0  0  0
 14 15  1  0  0  0
 15 16  1  0  0  0
 16 17  1  0  0  0
 17 18  1  0  0  0
 18 19  1  0  0  0
 18 25  1  0  0  0
 19 20  1  0  0  0
 20 21  1  0  0  0
 20 24  1  0  0  0
 21 22  1  0  0  0
 21 23  1  0  0  0
 23 51  1  0  0  0
 23 52  1  0  0  0
 24 53  1  0  0  0
 25 54  1  0  0  0
 26 55  1  0  0  0
 27 28  1  0  0  0
 28 29  2  0  0  0
 28 30  1  0  0  0
 30 31  1  0  0  0
 31 32  1  0  0  0
 31 36  1  0  0  0
 32 33  1  0  0  0
 33 34  2  0  0  0
 33 35  1  0  0  0
 35 56  1  0  0  0
 36 37  2  0  0  0
 36 38  1  0  0  0
 38 57  1  0  0  0
 39 40  1  0  0  0
 40 41  2  0  0  0
 40 42  1  0  0  0
 42 43  1  0  0  0
 43 44  1  0  0  0
 43 48  1  0  0  0
 44 45  1  0  0  0
 45 46  2  0  0  0
 45 47  1  0  0  0
 47 58  1  0  0  0
 48 49  2  0  0  0
 48 50  1  0  0  0
 50 59  1  0  0  0
M  END
>  <AUTHOR>
    GENERATED BY OPEN BABEL 2.4.1

>  <CHROM.1>
-85.75906629,64.98258169,85.52385066,-46.96160383,-158.13243467,110.89265803
-121.03291772,143.97091034,-4.15452800,-171.80309125,-117.68760809,-63.55554398
-58.92434004,-58.91559754,173.90955391,-162.22521342,71.06721962,-168.65552440
177.73804196,84.40264756,-176.40053152,61.58870580,-93.87502056,36.47620067
-120.66480075,-164.14267242,66.22109457,123.98642359,92.00735889,174.60977344
177.61492071,58.75809385,-174.21072211,84.99129382,50.16071452,124.92433605
95.72465803,-7.28274460,-174.57026923,-2.82009864,-3.56286860,-7.22510295
0.47539646,-1.02934612,-1.32532191

>  <COMPND>
    UNNAMED

>  <MASTER>
        0    0    0    0    0    0    0    0  109    0  109    0

>  <Name>
FB1.pdb

>  <RI>
0

>  <Rbt.Current_Directory>
/cluster/tossine/FB1_39T3/p3/1_clust02

>  <Rbt.Executable>
rbdock/0.1.0

>  <Rbt.Library>
librxdock.so/0.1.0

>  <Rbt.Parameter_File>
/cluster/rxdock/data/scripts/dock.prm

>  <Rbt.Receptor>
rx_0.prm

>  <SCORE>
55.2296

>  <SCORE.INTER>
27.3111

>  <SCORE.INTER.CONST>
1

>  <SCORE.INTER.POLAR>
-0.555054

>  <SCORE.INTER.REPUL>
0.450799

>  <SCORE.INTER.ROT>
32

>  <SCORE.INTER.VDW>
-10.4557

>  <SCORE.INTER.norm>
0.546222

>  <SCORE.INTRA>
25.4465

>  <SCORE.INTRA.DIHEDRAL>
33.4471

>  <SCORE.INTRA.DIHEDRAL.0>
47.3121

>  <SCORE.INTRA.POLAR>
1.47808

>  <SCORE.INTRA.POLAR.0>
-1.47808

>  <SCORE.INTRA.REPUL>
0

>  <SCORE.INTRA.REPUL.0>
0

>  <SCORE.INTRA.VDW>
3.6975

>  <SCORE.INTRA.VDW.0>
-2.78316

>  <SCORE.INTRA.norm>
0.50893

>  <SCORE.RESTR>
2.47195

>  <SCORE.RESTR.CAVITY>
2.47195

>  <SCORE.RESTR.norm>
0.049439

>  <SCORE.SYSTEM>
0

>  <SCORE.SYSTEM.CONST>
0

>  <SCORE.SYSTEM.DIHEDRAL>
0

>  <SCORE.SYSTEM.norm>
0

>  <SCORE.heavy>
50

>  <SCORE.norm>
1.10459

$$$$
